---------- Begin Simulation Statistics ----------
system.cpu0.dcache.overall_hits::total       23017646                       # number of overall hits
system.cpu0.dcache.overall_misses::total      2012768                       # number of overall misses
system.cpu0.dcache.overall_accesses::total     25030414                       # number of overall (read+write) accesses
system.cpu0.dcache.overall_miss_rate::total     0.080413                       # miss rate for overall accesses
system.cpu0.icache.overall_hits::total      283107668                       # number of overall hits
system.cpu0.icache.overall_misses::total       622291                       # number of overall misses
system.cpu0.icache.overall_accesses::total    283729959                       # number of overall (read+write) accesses
system.cpu0.icache.overall_miss_rate::total     0.002193                       # miss rate for overall accesses
system.cpu1.dcache.overall_hits::total        2643432                       # number of overall hits
system.cpu1.dcache.overall_misses::total       386257                       # number of overall misses
system.cpu1.dcache.overall_accesses::total      3029689                       # number of overall (read+write) accesses
system.cpu1.dcache.overall_miss_rate::total     0.127491                       # miss rate for overall accesses
system.cpu1.icache.overall_hits::total       13686127                       # number of overall hits
system.cpu1.icache.overall_misses::total        44603                       # number of overall misses
system.cpu1.icache.overall_accesses::total     13730730                       # number of overall (read+write) accesses
system.cpu1.icache.overall_miss_rate::total     0.003248                       # miss rate for overall accesses
system.cpu2.dcache.overall_hits::total        2182582                       # number of overall hits
system.cpu2.dcache.overall_misses::total        57082                       # number of overall misses
system.cpu2.dcache.overall_accesses::total      2239664                       # number of overall (read+write) accesses
system.cpu2.dcache.overall_miss_rate::total     0.025487                       # miss rate for overall accesses
system.cpu2.icache.overall_hits::total        8091880                       # number of overall hits
system.cpu2.icache.overall_misses::total        47957                       # number of overall misses
system.cpu2.icache.overall_accesses::total      8139837                       # number of overall (read+write) accesses
system.cpu2.icache.overall_miss_rate::total     0.005892                       # miss rate for overall accesses
system.cpu3.dcache.overall_hits::total        2316238                       # number of overall hits
system.cpu3.dcache.overall_misses::total        64166                       # number of overall misses
system.cpu3.dcache.overall_accesses::total      2380404                       # number of overall (read+write) accesses
system.cpu3.dcache.overall_miss_rate::total     0.026956                       # miss rate for overall accesses
system.cpu3.icache.overall_hits::total        7818669                       # number of overall hits
system.cpu3.icache.overall_misses::total        44963                       # number of overall misses
system.cpu3.icache.overall_accesses::total      7863632                       # number of overall (read+write) accesses
system.cpu3.icache.overall_miss_rate::total     0.005718                       # miss rate for overall accesses
system.l2.overall_hits::total                 2297850                       # number of overall hits
system.l2.overall_misses::total                608761                       # number of overall misses
system.l2.overall_accesses::total             2906611                       # number of overall (read+write) accesses
system.l2.overall_miss_rate::total           0.209440                       # miss rate for overall accesses
---------- End Simulation Statistics   ----------
---------- Begin Simulation Statistics ----------
system.cpu0.dcache.overall_hits::total         799454                       # number of overall hits
system.cpu0.dcache.overall_misses::total         3661                       # number of overall misses
system.cpu0.dcache.overall_accesses::total       803115                       # number of overall (read+write) accesses
system.cpu0.dcache.overall_miss_rate::total     0.004559                       # miss rate for overall accesses
system.cpu0.icache.overall_hits::total        3249463                       # number of overall hits
system.cpu0.icache.overall_misses::total         5924                       # number of overall misses
system.cpu0.icache.overall_accesses::total      3255387                       # number of overall (read+write) accesses
system.cpu0.icache.overall_miss_rate::total     0.001820                       # miss rate for overall accesses
system.cpu1.dcache.overall_hits::total         105060                       # number of overall hits
system.cpu1.dcache.overall_misses::total         3946                       # number of overall misses
system.cpu1.dcache.overall_accesses::total       109006                       # number of overall (read+write) accesses
system.cpu1.dcache.overall_miss_rate::total     0.036200                       # miss rate for overall accesses
system.cpu1.icache.overall_hits::total         301852                       # number of overall hits
system.cpu1.icache.overall_misses::total         4787                       # number of overall misses
system.cpu1.icache.overall_accesses::total       306639                       # number of overall (read+write) accesses
system.cpu1.icache.overall_miss_rate::total     0.015611                       # miss rate for overall accesses
system.cpu2.dcache.overall_hits::total       10650761                       # number of overall hits
system.cpu2.dcache.overall_misses::total        19639                       # number of overall misses
system.cpu2.dcache.overall_accesses::total     10670400                       # number of overall (read+write) accesses
system.cpu2.dcache.overall_miss_rate::total     0.001841                       # miss rate for overall accesses
system.cpu2.icache.overall_hits::total       44767363                       # number of overall hits
system.cpu2.icache.overall_misses::total        31504                       # number of overall misses
system.cpu2.icache.overall_accesses::total     44798867                       # number of overall (read+write) accesses
system.cpu2.icache.overall_miss_rate::total     0.000703                       # miss rate for overall accesses
system.cpu3.dcache.overall_hits::total         111555                       # number of overall hits
system.cpu3.dcache.overall_misses::total         4485                       # number of overall misses
system.cpu3.dcache.overall_accesses::total       116040                       # number of overall (read+write) accesses
system.cpu3.dcache.overall_miss_rate::total     0.038650                       # miss rate for overall accesses
system.cpu3.icache.overall_hits::total         331098                       # number of overall hits
system.cpu3.icache.overall_misses::total         5798                       # number of overall misses
system.cpu3.icache.overall_accesses::total       336896                       # number of overall (read+write) accesses
system.cpu3.icache.overall_miss_rate::total     0.017210                       # miss rate for overall accesses
system.l2.overall_hits::total                   59072                       # number of overall hits
system.l2.overall_misses::total                 12395                       # number of overall misses
system.l2.overall_accesses::total               71467                       # number of overall (read+write) accesses
system.l2.overall_miss_rate::total           0.173437                       # miss rate for overall accesses
---------- End Simulation Statistics   ----------
---------- Begin Simulation Statistics ----------
system.cpu0.dcache.overall_hits::total       21490285                       # number of overall hits
system.cpu0.dcache.overall_misses::total        40251                       # number of overall misses
system.cpu0.dcache.overall_accesses::total     21530536                       # number of overall (read+write) accesses
system.cpu0.dcache.overall_miss_rate::total     0.001869                       # miss rate for overall accesses
system.cpu0.icache.overall_hits::total       98808379                       # number of overall hits
system.cpu0.icache.overall_misses::total         8479                       # number of overall misses
system.cpu0.icache.overall_accesses::total     98816858                       # number of overall (read+write) accesses
system.cpu0.icache.overall_miss_rate::total     0.000086                       # miss rate for overall accesses
system.cpu1.dcache.overall_hits::total       20179170                       # number of overall hits
system.cpu1.dcache.overall_misses::total        27284                       # number of overall misses
system.cpu1.dcache.overall_accesses::total     20206454                       # number of overall (read+write) accesses
system.cpu1.dcache.overall_miss_rate::total     0.001350                       # miss rate for overall accesses
system.cpu1.icache.overall_hits::total       92739835                       # number of overall hits
system.cpu1.icache.overall_misses::total         9149                       # number of overall misses
system.cpu1.icache.overall_accesses::total     92748984                       # number of overall (read+write) accesses
system.cpu1.icache.overall_miss_rate::total     0.000099                       # miss rate for overall accesses
system.cpu2.dcache.overall_hits::total       22930845                       # number of overall hits
system.cpu2.dcache.overall_misses::total        57008                       # number of overall misses
system.cpu2.dcache.overall_accesses::total     22987853                       # number of overall (read+write) accesses
system.cpu2.dcache.overall_miss_rate::total     0.002480                       # miss rate for overall accesses
system.cpu2.icache.overall_hits::total      105555200                       # number of overall hits
system.cpu2.icache.overall_misses::total        11273                       # number of overall misses
system.cpu2.icache.overall_accesses::total    105566473                       # number of overall (read+write) accesses
system.cpu2.icache.overall_miss_rate::total     0.000107                       # miss rate for overall accesses
system.cpu3.dcache.overall_hits::total       21506389                       # number of overall hits
system.cpu3.dcache.overall_misses::total        30752                       # number of overall misses
system.cpu3.dcache.overall_accesses::total     21537141                       # number of overall (read+write) accesses
system.cpu3.dcache.overall_miss_rate::total     0.001428                       # miss rate for overall accesses
system.cpu3.icache.overall_hits::total       98828376                       # number of overall hits
system.cpu3.icache.overall_misses::total         8795                       # number of overall misses
system.cpu3.icache.overall_accesses::total     98837171                       # number of overall (read+write) accesses
system.cpu3.icache.overall_miss_rate::total     0.000089                       # miss rate for overall accesses
system.l2.overall_hits::total                  178564                       # number of overall hits
system.l2.overall_misses::total                 22620                       # number of overall misses
system.l2.overall_accesses::total              201184                       # number of overall (read+write) accesses
system.l2.overall_miss_rate::total           0.112434                       # miss rate for overall accesses
---------- End Simulation Statistics   ----------
---------- Begin Simulation Statistics ----------
system.cpu0.dcache.overall_hits::total          14600                       # number of overall hits
system.cpu0.dcache.overall_misses::total          603                       # number of overall misses
system.cpu0.dcache.overall_accesses::total        15203                       # number of overall (read+write) accesses
system.cpu0.dcache.overall_miss_rate::total     0.039663                       # miss rate for overall accesses
system.cpu0.icache.overall_hits::total          36765                       # number of overall hits
system.cpu0.icache.overall_misses::total          275                       # number of overall misses
system.cpu0.icache.overall_accesses::total        37040                       # number of overall (read+write) accesses
system.cpu0.icache.overall_miss_rate::total     0.007424                       # miss rate for overall accesses
system.cpu1.dcache.overall_hits::total        4967673                       # number of overall hits
system.cpu1.dcache.overall_misses::total         8170                       # number of overall misses
system.cpu1.dcache.overall_accesses::total      4975843                       # number of overall (read+write) accesses
system.cpu1.dcache.overall_miss_rate::total     0.001642                       # miss rate for overall accesses
system.cpu1.icache.overall_hits::total       16896006                       # number of overall hits
system.cpu1.icache.overall_misses::total        80821                       # number of overall misses
system.cpu1.icache.overall_accesses::total     16976827                       # number of overall (read+write) accesses
system.cpu1.icache.overall_miss_rate::total     0.004761                       # miss rate for overall accesses
system.cpu2.dcache.overall_hits::total          53756                       # number of overall hits
system.cpu2.dcache.overall_misses::total         2650                       # number of overall misses
system.cpu2.dcache.overall_accesses::total        56406                       # number of overall (read+write) accesses
system.cpu2.dcache.overall_miss_rate::total     0.046981                       # miss rate for overall accesses
system.cpu2.icache.overall_hits::total         154761                       # number of overall hits
system.cpu2.icache.overall_misses::total         1652                       # number of overall misses
system.cpu2.icache.overall_accesses::total       156413                       # number of overall (read+write) accesses
system.cpu2.icache.overall_miss_rate::total     0.010562                       # miss rate for overall accesses
system.cpu3.dcache.overall_hits::total          16482                       # number of overall hits
system.cpu3.dcache.overall_misses::total          672                       # number of overall misses
system.cpu3.dcache.overall_accesses::total        17154                       # number of overall (read+write) accesses
system.cpu3.dcache.overall_miss_rate::total     0.039175                       # miss rate for overall accesses
system.cpu3.icache.overall_hits::total          41749                       # number of overall hits
system.cpu3.icache.overall_misses::total          360                       # number of overall misses
system.cpu3.icache.overall_accesses::total        42109                       # number of overall (read+write) accesses
system.cpu3.icache.overall_miss_rate::total     0.008549                       # miss rate for overall accesses
system.l2.overall_hits::total                   88215                       # number of overall hits
system.l2.overall_misses::total                  4660                       # number of overall misses
system.l2.overall_accesses::total               92875                       # number of overall (read+write) accesses
system.l2.overall_miss_rate::total           0.050175                       # miss rate for overall accesses
---------- End Simulation Statistics   ----------
