---------- Begin Simulation Statistics ----------
system.cpu0.dcache.overall_hits::total       23018213                       # number of overall hits
system.cpu0.dcache.overall_misses::total      2012201                       # number of overall misses
system.cpu0.dcache.overall_accesses::total     25030414                       # number of overall (read+write) accesses
system.cpu0.dcache.overall_miss_rate::total     0.080390                       # miss rate for overall accesses
system.cpu0.icache.overall_hits::total      283107639                       # number of overall hits
system.cpu0.icache.overall_misses::total       622320                       # number of overall misses
system.cpu0.icache.overall_accesses::total    283729959                       # number of overall (read+write) accesses
system.cpu0.icache.overall_miss_rate::total     0.002193                       # miss rate for overall accesses
system.cpu1.dcache.overall_hits::total        2643605                       # number of overall hits
system.cpu1.dcache.overall_misses::total       386084                       # number of overall misses
system.cpu1.dcache.overall_accesses::total      3029689                       # number of overall (read+write) accesses
system.cpu1.dcache.overall_miss_rate::total     0.127434                       # miss rate for overall accesses
system.cpu1.icache.overall_hits::total       13686129                       # number of overall hits
system.cpu1.icache.overall_misses::total        44601                       # number of overall misses
system.cpu1.icache.overall_accesses::total     13730730                       # number of overall (read+write) accesses
system.cpu1.icache.overall_miss_rate::total     0.003248                       # miss rate for overall accesses
system.cpu2.dcache.overall_hits::total        2182506                       # number of overall hits
system.cpu2.dcache.overall_misses::total        57158                       # number of overall misses
system.cpu2.dcache.overall_accesses::total      2239664                       # number of overall (read+write) accesses
system.cpu2.dcache.overall_miss_rate::total     0.025521                       # miss rate for overall accesses
system.cpu2.icache.overall_hits::total        8091886                       # number of overall hits
system.cpu2.icache.overall_misses::total        47951                       # number of overall misses
system.cpu2.icache.overall_accesses::total      8139837                       # number of overall (read+write) accesses
system.cpu2.icache.overall_miss_rate::total     0.005891                       # miss rate for overall accesses
system.cpu3.dcache.overall_hits::total        2315916                       # number of overall hits
system.cpu3.dcache.overall_misses::total        64410                       # number of overall misses
system.cpu3.dcache.overall_accesses::total      2380326                       # number of overall (read+write) accesses
system.cpu3.dcache.overall_miss_rate::total     0.027059                       # miss rate for overall accesses
system.cpu3.icache.overall_hits::total        7818488                       # number of overall hits
system.cpu3.icache.overall_misses::total        44964                       # number of overall misses
system.cpu3.icache.overall_accesses::total      7863452                       # number of overall (read+write) accesses
system.cpu3.icache.overall_miss_rate::total     0.005718                       # miss rate for overall accesses
system.l2.overall_hits::total                 2291749                       # number of overall hits
system.l2.overall_misses::total                616594                       # number of overall misses
system.l2.overall_accesses::total             2908343                       # number of overall (read+write) accesses
system.l2.overall_miss_rate::total           0.212009                       # miss rate for overall accesses
---------- End Simulation Statistics   ----------
---------- Begin Simulation Statistics ----------
system.cpu0.dcache.overall_hits::total         789476                       # number of overall hits
system.cpu0.dcache.overall_misses::total        17137                       # number of overall misses
system.cpu0.dcache.overall_accesses::total       806613                       # number of overall (read+write) accesses
system.cpu0.dcache.overall_miss_rate::total     0.021246                       # miss rate for overall accesses
system.cpu0.icache.overall_hits::total        2692483                       # number of overall hits
system.cpu0.icache.overall_misses::total        15855                       # number of overall misses
system.cpu0.icache.overall_accesses::total      2708338                       # number of overall (read+write) accesses
system.cpu0.icache.overall_miss_rate::total     0.005854                       # miss rate for overall accesses
system.cpu1.dcache.overall_hits::total        4587549                       # number of overall hits
system.cpu1.dcache.overall_misses::total       183646                       # number of overall misses
system.cpu1.dcache.overall_accesses::total      4771195                       # number of overall (read+write) accesses
system.cpu1.dcache.overall_miss_rate::total     0.038491                       # miss rate for overall accesses
system.cpu1.icache.overall_hits::total       11988814                       # number of overall hits
system.cpu1.icache.overall_misses::total        39368                       # number of overall misses
system.cpu1.icache.overall_accesses::total     12028182                       # number of overall (read+write) accesses
system.cpu1.icache.overall_miss_rate::total     0.003273                       # miss rate for overall accesses
system.cpu2.dcache.overall_hits::total         472565                       # number of overall hits
system.cpu2.dcache.overall_misses::total        15138                       # number of overall misses
system.cpu2.dcache.overall_accesses::total       487703                       # number of overall (read+write) accesses
system.cpu2.dcache.overall_miss_rate::total     0.031039                       # miss rate for overall accesses
system.cpu2.icache.overall_hits::total        1431462                       # number of overall hits
system.cpu2.icache.overall_misses::total        18158                       # number of overall misses
system.cpu2.icache.overall_accesses::total      1449620                       # number of overall (read+write) accesses
system.cpu2.icache.overall_miss_rate::total     0.012526                       # miss rate for overall accesses
system.cpu3.dcache.overall_hits::total        1758589                       # number of overall hits
system.cpu3.dcache.overall_misses::total        27710                       # number of overall misses
system.cpu3.dcache.overall_accesses::total      1786299                       # number of overall (read+write) accesses
system.cpu3.dcache.overall_miss_rate::total     0.015513                       # miss rate for overall accesses
system.cpu3.icache.overall_hits::total        6808618                       # number of overall hits
system.cpu3.icache.overall_misses::total        14295                       # number of overall misses
system.cpu3.icache.overall_accesses::total      6822913                       # number of overall (read+write) accesses
system.cpu3.icache.overall_miss_rate::total     0.002095                       # miss rate for overall accesses
system.l2.overall_hits::total                  152956                       # number of overall hits
system.l2.overall_misses::total                167861                       # number of overall misses
system.l2.overall_accesses::total              320817                       # number of overall (read+write) accesses
system.l2.overall_miss_rate::total           0.523230                       # miss rate for overall accesses
---------- End Simulation Statistics   ----------
---------- Begin Simulation Statistics ----------
system.cpu0.dcache.overall_hits::total        2592071                       # number of overall hits
system.cpu0.dcache.overall_misses::total       137699                       # number of overall misses
system.cpu0.dcache.overall_accesses::total      2729770                       # number of overall (read+write) accesses
system.cpu0.dcache.overall_miss_rate::total     0.050443                       # miss rate for overall accesses
system.cpu0.icache.overall_hits::total        8734962                       # number of overall hits
system.cpu0.icache.overall_misses::total        65952                       # number of overall misses
system.cpu0.icache.overall_accesses::total      8800914                       # number of overall (read+write) accesses
system.cpu0.icache.overall_miss_rate::total     0.007494                       # miss rate for overall accesses
system.cpu1.dcache.overall_hits::total          65167                       # number of overall hits
system.cpu1.dcache.overall_misses::total         3046                       # number of overall misses
system.cpu1.dcache.overall_accesses::total        68213                       # number of overall (read+write) accesses
system.cpu1.dcache.overall_miss_rate::total     0.044654                       # miss rate for overall accesses
system.cpu1.icache.overall_hits::total         195874                       # number of overall hits
system.cpu1.icache.overall_misses::total         2689                       # number of overall misses
system.cpu1.icache.overall_accesses::total       198563                       # number of overall (read+write) accesses
system.cpu1.icache.overall_miss_rate::total     0.013542                       # miss rate for overall accesses
system.cpu2.dcache.overall_hits::total          33547                       # number of overall hits
system.cpu2.dcache.overall_misses::total         1380                       # number of overall misses
system.cpu2.dcache.overall_accesses::total        34927                       # number of overall (read+write) accesses
system.cpu2.dcache.overall_miss_rate::total     0.039511                       # miss rate for overall accesses
system.cpu2.icache.overall_hits::total          87570                       # number of overall hits
system.cpu2.icache.overall_misses::total         1056                       # number of overall misses
system.cpu2.icache.overall_accesses::total        88626                       # number of overall (read+write) accesses
system.cpu2.icache.overall_miss_rate::total     0.011915                       # miss rate for overall accesses
system.cpu3.dcache.overall_hits::total          30049                       # number of overall hits
system.cpu3.dcache.overall_misses::total          723                       # number of overall misses
system.cpu3.dcache.overall_accesses::total        30772                       # number of overall (read+write) accesses
system.cpu3.dcache.overall_miss_rate::total     0.023495                       # miss rate for overall accesses
system.cpu3.icache.overall_hits::total          84707                       # number of overall hits
system.cpu3.icache.overall_misses::total         1067                       # number of overall misses
system.cpu3.icache.overall_accesses::total        85774                       # number of overall (read+write) accesses
system.cpu3.icache.overall_miss_rate::total     0.012440                       # miss rate for overall accesses
system.l2.overall_hits::total                  131720                       # number of overall hits
system.l2.overall_misses::total                103648                       # number of overall misses
system.l2.overall_accesses::total              235368                       # number of overall (read+write) accesses
system.l2.overall_miss_rate::total           0.440366                       # miss rate for overall accesses
---------- End Simulation Statistics   ----------
