---------- Begin Simulation Statistics ----------
system.cpu0.dcache.overall_hits::total       23018213                       # number of overall hits
system.cpu0.dcache.overall_misses::total      2012201                       # number of overall misses
system.cpu0.dcache.overall_accesses::total     25030414                       # number of overall (read+write) accesses
system.cpu0.dcache.overall_miss_rate::total     0.080390                       # miss rate for overall accesses
system.cpu0.icache.overall_hits::total      283107639                       # number of overall hits
system.cpu0.icache.overall_misses::total       622320                       # number of overall misses
system.cpu0.icache.overall_accesses::total    283729959                       # number of overall (read+write) accesses
system.cpu0.icache.overall_miss_rate::total     0.002193                       # miss rate for overall accesses
system.cpu1.dcache.overall_hits::total        2643605                       # number of overall hits
system.cpu1.dcache.overall_misses::total       386084                       # number of overall misses
system.cpu1.dcache.overall_accesses::total      3029689                       # number of overall (read+write) accesses
system.cpu1.dcache.overall_miss_rate::total     0.127434                       # miss rate for overall accesses
system.cpu1.icache.overall_hits::total       13686129                       # number of overall hits
system.cpu1.icache.overall_misses::total        44601                       # number of overall misses
system.cpu1.icache.overall_accesses::total     13730730                       # number of overall (read+write) accesses
system.cpu1.icache.overall_miss_rate::total     0.003248                       # miss rate for overall accesses
system.cpu2.dcache.overall_hits::total        2182506                       # number of overall hits
system.cpu2.dcache.overall_misses::total        57158                       # number of overall misses
system.cpu2.dcache.overall_accesses::total      2239664                       # number of overall (read+write) accesses
system.cpu2.dcache.overall_miss_rate::total     0.025521                       # miss rate for overall accesses
system.cpu2.icache.overall_hits::total        8091886                       # number of overall hits
system.cpu2.icache.overall_misses::total        47951                       # number of overall misses
system.cpu2.icache.overall_accesses::total      8139837                       # number of overall (read+write) accesses
system.cpu2.icache.overall_miss_rate::total     0.005891                       # miss rate for overall accesses
system.cpu3.dcache.overall_hits::total        2315900                       # number of overall hits
system.cpu3.dcache.overall_misses::total        64409                       # number of overall misses
system.cpu3.dcache.overall_accesses::total      2380309                       # number of overall (read+write) accesses
system.cpu3.dcache.overall_miss_rate::total     0.027059                       # miss rate for overall accesses
system.cpu3.icache.overall_hits::total        7818433                       # number of overall hits
system.cpu3.icache.overall_misses::total        44964                       # number of overall misses
system.cpu3.icache.overall_accesses::total      7863397                       # number of overall (read+write) accesses
system.cpu3.icache.overall_miss_rate::total     0.005718                       # miss rate for overall accesses
system.l2.overall_hits::total                 2291749                       # number of overall hits
system.l2.overall_misses::total                616592                       # number of overall misses
system.l2.overall_accesses::total             2908341                       # number of overall (read+write) accesses
system.l2.overall_miss_rate::total           0.212008                       # miss rate for overall accesses
---------- End Simulation Statistics   ----------
---------- Begin Simulation Statistics ----------
system.cpu0.dcache.overall_hits::total           6007                       # number of overall hits
system.cpu0.dcache.overall_misses::total          253                       # number of overall misses
system.cpu0.dcache.overall_accesses::total         6260                       # number of overall (read+write) accesses
system.cpu0.dcache.overall_miss_rate::total     0.040415                       # miss rate for overall accesses
system.cpu0.icache.overall_hits::total          14682                       # number of overall hits
system.cpu0.icache.overall_misses::total           70                       # number of overall misses
system.cpu0.icache.overall_accesses::total        14752                       # number of overall (read+write) accesses
system.cpu0.icache.overall_miss_rate::total     0.004745                       # miss rate for overall accesses
system.cpu1.dcache.overall_hits::total           6034                       # number of overall hits
system.cpu1.dcache.overall_misses::total          222                       # number of overall misses
system.cpu1.dcache.overall_accesses::total         6256                       # number of overall (read+write) accesses
system.cpu1.dcache.overall_miss_rate::total     0.035486                       # miss rate for overall accesses
system.cpu1.icache.overall_hits::total          14702                       # number of overall hits
system.cpu1.icache.overall_misses::total           70                       # number of overall misses
system.cpu1.icache.overall_accesses::total        14772                       # number of overall (read+write) accesses
system.cpu1.icache.overall_miss_rate::total     0.004739                       # miss rate for overall accesses
system.cpu2.dcache.overall_hits::total         132445                       # number of overall hits
system.cpu2.dcache.overall_misses::total         6808                       # number of overall misses
system.cpu2.dcache.overall_accesses::total       139253                       # number of overall (read+write) accesses
system.cpu2.dcache.overall_miss_rate::total     0.048889                       # miss rate for overall accesses
system.cpu2.icache.overall_hits::total         348257                       # number of overall hits
system.cpu2.icache.overall_misses::total         5147                       # number of overall misses
system.cpu2.icache.overall_accesses::total       353404                       # number of overall (read+write) accesses
system.cpu2.icache.overall_miss_rate::total     0.014564                       # miss rate for overall accesses
system.cpu3.dcache.overall_hits::total          44549                       # number of overall hits
system.cpu3.dcache.overall_misses::total         2318                       # number of overall misses
system.cpu3.dcache.overall_accesses::total        46867                       # number of overall (read+write) accesses
system.cpu3.dcache.overall_miss_rate::total     0.049459                       # miss rate for overall accesses
system.cpu3.icache.overall_hits::total         131603                       # number of overall hits
system.cpu3.icache.overall_misses::total         1548                       # number of overall misses
system.cpu3.icache.overall_accesses::total       133151                       # number of overall (read+write) accesses
system.cpu3.icache.overall_miss_rate::total     0.011626                       # miss rate for overall accesses
system.l2.overall_hits::total                   12650                       # number of overall hits
system.l2.overall_misses::total                  2079                       # number of overall misses
system.l2.overall_accesses::total               14729                       # number of overall (read+write) accesses
system.l2.overall_miss_rate::total           0.141150                       # miss rate for overall accesses
---------- End Simulation Statistics   ----------
