---------- Begin Simulation Statistics ----------
system.cpu0.dcache.overall_hits::total       23017646                       # number of overall hits
system.cpu0.dcache.overall_misses::total      2012768                       # number of overall misses
system.cpu0.dcache.overall_accesses::total     25030414                       # number of overall (read+write) accesses
system.cpu0.dcache.overall_miss_rate::total     0.080413                       # miss rate for overall accesses
system.cpu0.icache.overall_hits::total      283107668                       # number of overall hits
system.cpu0.icache.overall_misses::total       622291                       # number of overall misses
system.cpu0.icache.overall_accesses::total    283729959                       # number of overall (read+write) accesses
system.cpu0.icache.overall_miss_rate::total     0.002193                       # miss rate for overall accesses
system.cpu1.dcache.overall_hits::total        2643432                       # number of overall hits
system.cpu1.dcache.overall_misses::total       386257                       # number of overall misses
system.cpu1.dcache.overall_accesses::total      3029689                       # number of overall (read+write) accesses
system.cpu1.dcache.overall_miss_rate::total     0.127491                       # miss rate for overall accesses
system.cpu1.icache.overall_hits::total       13686127                       # number of overall hits
system.cpu1.icache.overall_misses::total        44603                       # number of overall misses
system.cpu1.icache.overall_accesses::total     13730730                       # number of overall (read+write) accesses
system.cpu1.icache.overall_miss_rate::total     0.003248                       # miss rate for overall accesses
system.cpu2.dcache.overall_hits::total        2182582                       # number of overall hits
system.cpu2.dcache.overall_misses::total        57082                       # number of overall misses
system.cpu2.dcache.overall_accesses::total      2239664                       # number of overall (read+write) accesses
system.cpu2.dcache.overall_miss_rate::total     0.025487                       # miss rate for overall accesses
system.cpu2.icache.overall_hits::total        8091880                       # number of overall hits
system.cpu2.icache.overall_misses::total        47957                       # number of overall misses
system.cpu2.icache.overall_accesses::total      8139837                       # number of overall (read+write) accesses
system.cpu2.icache.overall_miss_rate::total     0.005892                       # miss rate for overall accesses
system.cpu3.dcache.overall_hits::total        2316160                       # number of overall hits
system.cpu3.dcache.overall_misses::total        64166                       # number of overall misses
system.cpu3.dcache.overall_accesses::total      2380326                       # number of overall (read+write) accesses
system.cpu3.dcache.overall_miss_rate::total     0.026957                       # miss rate for overall accesses
system.cpu3.icache.overall_hits::total        7818489                       # number of overall hits
system.cpu3.icache.overall_misses::total        44963                       # number of overall misses
system.cpu3.icache.overall_accesses::total      7863452                       # number of overall (read+write) accesses
system.cpu3.icache.overall_miss_rate::total     0.005718                       # miss rate for overall accesses
system.l2.overall_hits::total                 2297850                       # number of overall hits
system.l2.overall_misses::total                608761                       # number of overall misses
system.l2.overall_accesses::total             2906611                       # number of overall (read+write) accesses
system.l2.overall_miss_rate::total           0.209440                       # miss rate for overall accesses
---------- End Simulation Statistics   ----------
---------- Begin Simulation Statistics ----------
system.cpu0.dcache.overall_hits::total         789512                       # number of overall hits
system.cpu0.dcache.overall_misses::total        17101                       # number of overall misses
system.cpu0.dcache.overall_accesses::total       806613                       # number of overall (read+write) accesses
system.cpu0.dcache.overall_miss_rate::total     0.021201                       # miss rate for overall accesses
system.cpu0.icache.overall_hits::total        2692476                       # number of overall hits
system.cpu0.icache.overall_misses::total        15862                       # number of overall misses
system.cpu0.icache.overall_accesses::total      2708338                       # number of overall (read+write) accesses
system.cpu0.icache.overall_miss_rate::total     0.005857                       # miss rate for overall accesses
system.cpu1.dcache.overall_hits::total        4587718                       # number of overall hits
system.cpu1.dcache.overall_misses::total       183477                       # number of overall misses
system.cpu1.dcache.overall_accesses::total      4771195                       # number of overall (read+write) accesses
system.cpu1.dcache.overall_miss_rate::total     0.038455                       # miss rate for overall accesses
system.cpu1.icache.overall_hits::total       11988821                       # number of overall hits
system.cpu1.icache.overall_misses::total        39361                       # number of overall misses
system.cpu1.icache.overall_accesses::total     12028182                       # number of overall (read+write) accesses
system.cpu1.icache.overall_miss_rate::total     0.003272                       # miss rate for overall accesses
system.cpu2.dcache.overall_hits::total         472491                       # number of overall hits
system.cpu2.dcache.overall_misses::total        15212                       # number of overall misses
system.cpu2.dcache.overall_accesses::total       487703                       # number of overall (read+write) accesses
system.cpu2.dcache.overall_miss_rate::total     0.031191                       # miss rate for overall accesses
system.cpu2.icache.overall_hits::total        1431454                       # number of overall hits
system.cpu2.icache.overall_misses::total        18166                       # number of overall misses
system.cpu2.icache.overall_accesses::total      1449620                       # number of overall (read+write) accesses
system.cpu2.icache.overall_miss_rate::total     0.012532                       # miss rate for overall accesses
system.cpu3.dcache.overall_hits::total        1758549                       # number of overall hits
system.cpu3.dcache.overall_misses::total        27750                       # number of overall misses
system.cpu3.dcache.overall_accesses::total      1786299                       # number of overall (read+write) accesses
system.cpu3.dcache.overall_miss_rate::total     0.015535                       # miss rate for overall accesses
system.cpu3.icache.overall_hits::total        6808617                       # number of overall hits
system.cpu3.icache.overall_misses::total        14296                       # number of overall misses
system.cpu3.icache.overall_accesses::total      6822913                       # number of overall (read+write) accesses
system.cpu3.icache.overall_miss_rate::total     0.002095                       # miss rate for overall accesses
system.l2.overall_hits::total                  154969                       # number of overall hits
system.l2.overall_misses::total                167186                       # number of overall misses
system.l2.overall_accesses::total              322155                       # number of overall (read+write) accesses
system.l2.overall_miss_rate::total           0.518961                       # miss rate for overall accesses
---------- End Simulation Statistics   ----------
---------- Begin Simulation Statistics ----------
system.cpu0.dcache.overall_hits::total        2593945                       # number of overall hits
system.cpu0.dcache.overall_misses::total       135825                       # number of overall misses
system.cpu0.dcache.overall_accesses::total      2729770                       # number of overall (read+write) accesses
system.cpu0.dcache.overall_miss_rate::total     0.049757                       # miss rate for overall accesses
system.cpu0.icache.overall_hits::total        8734983                       # number of overall hits
system.cpu0.icache.overall_misses::total        65931                       # number of overall misses
system.cpu0.icache.overall_accesses::total      8800914                       # number of overall (read+write) accesses
system.cpu0.icache.overall_miss_rate::total     0.007491                       # miss rate for overall accesses
system.cpu1.dcache.overall_hits::total          65196                       # number of overall hits
system.cpu1.dcache.overall_misses::total         3017                       # number of overall misses
system.cpu1.dcache.overall_accesses::total        68213                       # number of overall (read+write) accesses
system.cpu1.dcache.overall_miss_rate::total     0.044229                       # miss rate for overall accesses
system.cpu1.icache.overall_hits::total         195874                       # number of overall hits
system.cpu1.icache.overall_misses::total         2689                       # number of overall misses
system.cpu1.icache.overall_accesses::total       198563                       # number of overall (read+write) accesses
system.cpu1.icache.overall_miss_rate::total     0.013542                       # miss rate for overall accesses
system.cpu2.dcache.overall_hits::total          33543                       # number of overall hits
system.cpu2.dcache.overall_misses::total         1384                       # number of overall misses
system.cpu2.dcache.overall_accesses::total        34927                       # number of overall (read+write) accesses
system.cpu2.dcache.overall_miss_rate::total     0.039626                       # miss rate for overall accesses
system.cpu2.icache.overall_hits::total          87570                       # number of overall hits
system.cpu2.icache.overall_misses::total         1056                       # number of overall misses
system.cpu2.icache.overall_accesses::total        88626                       # number of overall (read+write) accesses
system.cpu2.icache.overall_miss_rate::total     0.011915                       # miss rate for overall accesses
system.cpu3.dcache.overall_hits::total          30041                       # number of overall hits
system.cpu3.dcache.overall_misses::total          731                       # number of overall misses
system.cpu3.dcache.overall_accesses::total        30772                       # number of overall (read+write) accesses
system.cpu3.dcache.overall_miss_rate::total     0.023755                       # miss rate for overall accesses
system.cpu3.icache.overall_hits::total          84707                       # number of overall hits
system.cpu3.icache.overall_misses::total         1067                       # number of overall misses
system.cpu3.icache.overall_accesses::total        85774                       # number of overall (read+write) accesses
system.cpu3.icache.overall_miss_rate::total     0.012440                       # miss rate for overall accesses
system.l2.overall_hits::total                  130745                       # number of overall hits
system.l2.overall_misses::total                103374                       # number of overall misses
system.l2.overall_accesses::total              234119                       # number of overall (read+write) accesses
system.l2.overall_miss_rate::total           0.441545                       # miss rate for overall accesses
---------- End Simulation Statistics   ----------
