---------- Begin Simulation Statistics ----------
system.cpu0.dcache.overall_hits::total       23017645                       # number of overall hits
system.cpu0.dcache.overall_misses::total      2012769                       # number of overall misses
system.cpu0.dcache.overall_accesses::total     25030414                       # number of overall (read+write) accesses
system.cpu0.dcache.overall_miss_rate::total     0.080413                       # miss rate for overall accesses
system.cpu0.icache.overall_hits::total      283107668                       # number of overall hits
system.cpu0.icache.overall_misses::total       622291                       # number of overall misses
system.cpu0.icache.overall_accesses::total    283729959                       # number of overall (read+write) accesses
system.cpu0.icache.overall_miss_rate::total     0.002193                       # miss rate for overall accesses
system.cpu1.dcache.overall_hits::total        2643432                       # number of overall hits
system.cpu1.dcache.overall_misses::total       386257                       # number of overall misses
system.cpu1.dcache.overall_accesses::total      3029689                       # number of overall (read+write) accesses
system.cpu1.dcache.overall_miss_rate::total     0.127491                       # miss rate for overall accesses
system.cpu1.icache.overall_hits::total       13686127                       # number of overall hits
system.cpu1.icache.overall_misses::total        44603                       # number of overall misses
system.cpu1.icache.overall_accesses::total     13730730                       # number of overall (read+write) accesses
system.cpu1.icache.overall_miss_rate::total     0.003248                       # miss rate for overall accesses
system.cpu2.dcache.overall_hits::total        2182582                       # number of overall hits
system.cpu2.dcache.overall_misses::total        57082                       # number of overall misses
system.cpu2.dcache.overall_accesses::total      2239664                       # number of overall (read+write) accesses
system.cpu2.dcache.overall_miss_rate::total     0.025487                       # miss rate for overall accesses
system.cpu2.icache.overall_hits::total        8091880                       # number of overall hits
system.cpu2.icache.overall_misses::total        47957                       # number of overall misses
system.cpu2.icache.overall_accesses::total      8139837                       # number of overall (read+write) accesses
system.cpu2.icache.overall_miss_rate::total     0.005892                       # miss rate for overall accesses
system.cpu3.dcache.overall_hits::total        2316145                       # number of overall hits
system.cpu3.dcache.overall_misses::total        64159                       # number of overall misses
system.cpu3.dcache.overall_accesses::total      2380304                       # number of overall (read+write) accesses
system.cpu3.dcache.overall_miss_rate::total     0.026954                       # miss rate for overall accesses
system.cpu3.icache.overall_hits::total        7818437                       # number of overall hits
system.cpu3.icache.overall_misses::total        44963                       # number of overall misses
system.cpu3.icache.overall_accesses::total      7863400                       # number of overall (read+write) accesses
system.cpu3.icache.overall_miss_rate::total     0.005718                       # miss rate for overall accesses
system.l2.overall_hits::total                 2297849                       # number of overall hits
system.l2.overall_misses::total                608753                       # number of overall misses
system.l2.overall_accesses::total             2906602                       # number of overall (read+write) accesses
system.l2.overall_miss_rate::total           0.209438                       # miss rate for overall accesses
---------- End Simulation Statistics   ----------
---------- Begin Simulation Statistics ----------
system.cpu0.dcache.overall_hits::total         433918                       # number of overall hits
system.cpu0.dcache.overall_misses::total        10825                       # number of overall misses
system.cpu0.dcache.overall_accesses::total       444743                       # number of overall (read+write) accesses
system.cpu0.dcache.overall_miss_rate::total     0.024340                       # miss rate for overall accesses
system.cpu0.icache.overall_hits::total        1128675                       # number of overall hits
system.cpu0.icache.overall_misses::total         8083                       # number of overall misses
system.cpu0.icache.overall_accesses::total      1136758                       # number of overall (read+write) accesses
system.cpu0.icache.overall_miss_rate::total     0.007111                       # miss rate for overall accesses
system.cpu1.dcache.overall_hits::total         469058                       # number of overall hits
system.cpu1.dcache.overall_misses::total        11849                       # number of overall misses
system.cpu1.dcache.overall_accesses::total       480907                       # number of overall (read+write) accesses
system.cpu1.dcache.overall_miss_rate::total     0.024639                       # miss rate for overall accesses
system.cpu1.icache.overall_hits::total        1227906                       # number of overall hits
system.cpu1.icache.overall_misses::total         8339                       # number of overall misses
system.cpu1.icache.overall_accesses::total      1236245                       # number of overall (read+write) accesses
system.cpu1.icache.overall_miss_rate::total     0.006745                       # miss rate for overall accesses
system.cpu2.dcache.overall_hits::total       17841468                       # number of overall hits
system.cpu2.dcache.overall_misses::total       427923                       # number of overall misses
system.cpu2.dcache.overall_accesses::total     18269391                       # number of overall (read+write) accesses
system.cpu2.dcache.overall_miss_rate::total     0.023423                       # miss rate for overall accesses
system.cpu2.icache.overall_hits::total       54966690                       # number of overall hits
system.cpu2.icache.overall_misses::total        62320                       # number of overall misses
system.cpu2.icache.overall_accesses::total     55029010                       # number of overall (read+write) accesses
system.cpu2.icache.overall_miss_rate::total     0.001132                       # miss rate for overall accesses
system.cpu3.dcache.overall_hits::total      445476735                       # number of overall hits
system.cpu3.dcache.overall_misses::total     17010856                       # number of overall misses
system.cpu3.dcache.overall_accesses::total    462487591                       # number of overall (read+write) accesses
system.cpu3.dcache.overall_miss_rate::total     0.036781                       # miss rate for overall accesses
system.cpu3.icache.overall_hits::total     1456967718                       # number of overall hits
system.cpu3.icache.overall_misses::total      3756860                       # number of overall misses
system.cpu3.icache.overall_accesses::total   1460724578                       # number of overall (read+write) accesses
system.cpu3.icache.overall_miss_rate::total     0.002572                       # miss rate for overall accesses
system.l2.overall_hits::total                41079920                       # number of overall hits
system.l2.overall_misses::total               7660342                       # number of overall misses
system.l2.overall_accesses::total            48740262                       # number of overall (read+write) accesses
system.l2.overall_miss_rate::total           0.157167                       # miss rate for overall accesses
---------- End Simulation Statistics   ----------
---------- Begin Simulation Statistics ----------
system.cpu0.dcache.overall_hits::total       21135964                       # number of overall hits
system.cpu0.dcache.overall_misses::total      1547139                       # number of overall misses
system.cpu0.dcache.overall_accesses::total     22683103                       # number of overall (read+write) accesses
system.cpu0.dcache.overall_miss_rate::total     0.068207                       # miss rate for overall accesses
system.cpu0.icache.overall_hits::total       88693513                       # number of overall hits
system.cpu0.icache.overall_misses::total        25419                       # number of overall misses
system.cpu0.icache.overall_accesses::total     88718932                       # number of overall (read+write) accesses
system.cpu0.icache.overall_miss_rate::total     0.000287                       # miss rate for overall accesses
system.cpu1.dcache.overall_hits::total       23559212                       # number of overall hits
system.cpu1.dcache.overall_misses::total      1724097                       # number of overall misses
system.cpu1.dcache.overall_accesses::total     25283309                       # number of overall (read+write) accesses
system.cpu1.dcache.overall_miss_rate::total     0.068191                       # miss rate for overall accesses
system.cpu1.icache.overall_hits::total       99364146                       # number of overall hits
system.cpu1.icache.overall_misses::total        37487                       # number of overall misses
system.cpu1.icache.overall_accesses::total     99401633                       # number of overall (read+write) accesses
system.cpu1.icache.overall_miss_rate::total     0.000377                       # miss rate for overall accesses
system.cpu2.dcache.overall_hits::total       21528599                       # number of overall hits
system.cpu2.dcache.overall_misses::total      1572072                       # number of overall misses
system.cpu2.dcache.overall_accesses::total     23100671                       # number of overall (read+write) accesses
system.cpu2.dcache.overall_miss_rate::total     0.068053                       # miss rate for overall accesses
system.cpu2.icache.overall_hits::total       90617312                       # number of overall hits
system.cpu2.icache.overall_misses::total        34792                       # number of overall misses
system.cpu2.icache.overall_accesses::total     90652104                       # number of overall (read+write) accesses
system.cpu2.icache.overall_miss_rate::total     0.000384                       # miss rate for overall accesses
system.cpu3.dcache.overall_hits::total       18579533                       # number of overall hits
system.cpu3.dcache.overall_misses::total      1366060                       # number of overall misses
system.cpu3.dcache.overall_accesses::total     19945593                       # number of overall (read+write) accesses
system.cpu3.dcache.overall_miss_rate::total     0.068489                       # miss rate for overall accesses
system.cpu3.icache.overall_hits::total       78258954                       # number of overall hits
system.cpu3.icache.overall_misses::total        25184                       # number of overall misses
system.cpu3.icache.overall_accesses::total     78284138                       # number of overall (read+write) accesses
system.cpu3.icache.overall_miss_rate::total     0.000322                       # miss rate for overall accesses
system.l2.overall_hits::total                14259848                       # number of overall hits
system.l2.overall_misses::total               4056827                       # number of overall misses
system.l2.overall_accesses::total            18316675                       # number of overall (read+write) accesses
system.l2.overall_miss_rate::total           0.221483                       # miss rate for overall accesses
---------- End Simulation Statistics   ----------
---------- Begin Simulation Statistics ----------
system.cpu0.dcache.overall_hits::total          38390                       # number of overall hits
system.cpu0.dcache.overall_misses::total         1083                       # number of overall misses
system.cpu0.dcache.overall_accesses::total        39473                       # number of overall (read+write) accesses
system.cpu0.dcache.overall_miss_rate::total     0.027436                       # miss rate for overall accesses
system.cpu0.icache.overall_hits::total          97805                       # number of overall hits
system.cpu0.icache.overall_misses::total          316                       # number of overall misses
system.cpu0.icache.overall_accesses::total        98121                       # number of overall (read+write) accesses
system.cpu0.icache.overall_miss_rate::total     0.003221                       # miss rate for overall accesses
system.cpu1.dcache.overall_hits::total       30438679                       # number of overall hits
system.cpu1.dcache.overall_misses::total      4534747                       # number of overall misses
system.cpu1.dcache.overall_accesses::total     34973426                       # number of overall (read+write) accesses
system.cpu1.dcache.overall_miss_rate::total     0.129663                       # miss rate for overall accesses
system.cpu1.icache.overall_hits::total      116146776                       # number of overall hits
system.cpu1.icache.overall_misses::total         3906                       # number of overall misses
system.cpu1.icache.overall_accesses::total    116150682                       # number of overall (read+write) accesses
system.cpu1.icache.overall_miss_rate::total     0.000034                       # miss rate for overall accesses
system.cpu2.dcache.overall_hits::total          77775                       # number of overall hits
system.cpu2.dcache.overall_misses::total         3370                       # number of overall misses
system.cpu2.dcache.overall_accesses::total        81145                       # number of overall (read+write) accesses
system.cpu2.dcache.overall_miss_rate::total     0.041531                       # miss rate for overall accesses
system.cpu2.icache.overall_hits::total         217564                       # number of overall hits
system.cpu2.icache.overall_misses::total         1841                       # number of overall misses
system.cpu2.icache.overall_accesses::total       219405                       # number of overall (read+write) accesses
system.cpu2.icache.overall_miss_rate::total     0.008391                       # miss rate for overall accesses
system.cpu3.dcache.overall_hits::total          39157                       # number of overall hits
system.cpu3.dcache.overall_misses::total         1268                       # number of overall misses
system.cpu3.dcache.overall_accesses::total        40425                       # number of overall (read+write) accesses
system.cpu3.dcache.overall_miss_rate::total     0.031367                       # miss rate for overall accesses
system.cpu3.icache.overall_hits::total         100363                       # number of overall hits
system.cpu3.icache.overall_misses::total          376                       # number of overall misses
system.cpu3.icache.overall_accesses::total       100739                       # number of overall (read+write) accesses
system.cpu3.icache.overall_miss_rate::total     0.003732                       # miss rate for overall accesses
system.l2.overall_hits::total                 8100931                       # number of overall hits
system.l2.overall_misses::total               3597453                       # number of overall misses
system.l2.overall_accesses::total            11698384                       # number of overall (read+write) accesses
system.l2.overall_miss_rate::total           0.307517                       # miss rate for overall accesses
---------- End Simulation Statistics   ----------
