---------- Begin Simulation Statistics ----------
system.cpu0.dcache.overall_hits::total       23017645                       # number of overall hits
system.cpu0.dcache.overall_misses::total      2012769                       # number of overall misses
system.cpu0.dcache.overall_accesses::total     25030414                       # number of overall (read+write) accesses
system.cpu0.dcache.overall_miss_rate::total     0.080413                       # miss rate for overall accesses
system.cpu0.icache.overall_hits::total      283107668                       # number of overall hits
system.cpu0.icache.overall_misses::total       622291                       # number of overall misses
system.cpu0.icache.overall_accesses::total    283729959                       # number of overall (read+write) accesses
system.cpu0.icache.overall_miss_rate::total     0.002193                       # miss rate for overall accesses
system.cpu1.dcache.overall_hits::total        2643432                       # number of overall hits
system.cpu1.dcache.overall_misses::total       386257                       # number of overall misses
system.cpu1.dcache.overall_accesses::total      3029689                       # number of overall (read+write) accesses
system.cpu1.dcache.overall_miss_rate::total     0.127491                       # miss rate for overall accesses
system.cpu1.icache.overall_hits::total       13686127                       # number of overall hits
system.cpu1.icache.overall_misses::total        44603                       # number of overall misses
system.cpu1.icache.overall_accesses::total     13730730                       # number of overall (read+write) accesses
system.cpu1.icache.overall_miss_rate::total     0.003248                       # miss rate for overall accesses
system.cpu2.dcache.overall_hits::total        2182582                       # number of overall hits
system.cpu2.dcache.overall_misses::total        57082                       # number of overall misses
system.cpu2.dcache.overall_accesses::total      2239664                       # number of overall (read+write) accesses
system.cpu2.dcache.overall_miss_rate::total     0.025487                       # miss rate for overall accesses
system.cpu2.icache.overall_hits::total        8091880                       # number of overall hits
system.cpu2.icache.overall_misses::total        47957                       # number of overall misses
system.cpu2.icache.overall_accesses::total      8139837                       # number of overall (read+write) accesses
system.cpu2.icache.overall_miss_rate::total     0.005892                       # miss rate for overall accesses
system.cpu3.dcache.overall_hits::total        2316158                       # number of overall hits
system.cpu3.dcache.overall_misses::total        64168                       # number of overall misses
system.cpu3.dcache.overall_accesses::total      2380326                       # number of overall (read+write) accesses
system.cpu3.dcache.overall_miss_rate::total     0.026958                       # miss rate for overall accesses
system.cpu3.icache.overall_hits::total        7818439                       # number of overall hits
system.cpu3.icache.overall_misses::total        44963                       # number of overall misses
system.cpu3.icache.overall_accesses::total      7863402                       # number of overall (read+write) accesses
system.cpu3.icache.overall_miss_rate::total     0.005718                       # miss rate for overall accesses
system.l2.overall_hits::total                 2297864                       # number of overall hits
system.l2.overall_misses::total                608751                       # number of overall misses
system.l2.overall_accesses::total             2906615                       # number of overall (read+write) accesses
system.l2.overall_miss_rate::total           0.209436                       # miss rate for overall accesses
---------- End Simulation Statistics   ----------
---------- Begin Simulation Statistics ----------
system.cpu0.dcache.overall_hits::total         234354                       # number of overall hits
system.cpu0.dcache.overall_misses::total         7740                       # number of overall misses
system.cpu0.dcache.overall_accesses::total       242094                       # number of overall (read+write) accesses
system.cpu0.dcache.overall_miss_rate::total     0.031971                       # miss rate for overall accesses
system.cpu0.icache.overall_hits::total         719591                       # number of overall hits
system.cpu0.icache.overall_misses::total        11379                       # number of overall misses
system.cpu0.icache.overall_accesses::total       730970                       # number of overall (read+write) accesses
system.cpu0.icache.overall_miss_rate::total     0.015567                       # miss rate for overall accesses
system.cpu1.dcache.overall_hits::total        2717149                       # number of overall hits
system.cpu1.dcache.overall_misses::total       182472                       # number of overall misses
system.cpu1.dcache.overall_accesses::total      2899621                       # number of overall (read+write) accesses
system.cpu1.dcache.overall_miss_rate::total     0.062930                       # miss rate for overall accesses
system.cpu1.icache.overall_hits::total        6452478                       # number of overall hits
system.cpu1.icache.overall_misses::total        15396                       # number of overall misses
system.cpu1.icache.overall_accesses::total      6467874                       # number of overall (read+write) accesses
system.cpu1.icache.overall_miss_rate::total     0.002380                       # miss rate for overall accesses
system.cpu2.dcache.overall_hits::total         144058                       # number of overall hits
system.cpu2.dcache.overall_misses::total         5835                       # number of overall misses
system.cpu2.dcache.overall_accesses::total       149893                       # number of overall (read+write) accesses
system.cpu2.dcache.overall_miss_rate::total     0.038928                       # miss rate for overall accesses
system.cpu2.icache.overall_hits::total         402886                       # number of overall hits
system.cpu2.icache.overall_misses::total         4778                       # number of overall misses
system.cpu2.icache.overall_accesses::total       407664                       # number of overall (read+write) accesses
system.cpu2.icache.overall_miss_rate::total     0.011720                       # miss rate for overall accesses
system.cpu3.dcache.overall_hits::total         105348                       # number of overall hits
system.cpu3.dcache.overall_misses::total         3168                       # number of overall misses
system.cpu3.dcache.overall_accesses::total       108516                       # number of overall (read+write) accesses
system.cpu3.dcache.overall_miss_rate::total     0.029194                       # miss rate for overall accesses
system.cpu3.icache.overall_hits::total         309088                       # number of overall hits
system.cpu3.icache.overall_misses::total         4620                       # number of overall misses
system.cpu3.icache.overall_accesses::total       313708                       # number of overall (read+write) accesses
system.cpu3.icache.overall_miss_rate::total     0.014727                       # miss rate for overall accesses
system.l2.overall_hits::total                   80481                       # number of overall hits
system.l2.overall_misses::total                138591                       # number of overall misses
system.l2.overall_accesses::total              219072                       # number of overall (read+write) accesses
system.l2.overall_miss_rate::total           0.632628                       # miss rate for overall accesses
---------- End Simulation Statistics   ----------
---------- Begin Simulation Statistics ----------
system.cpu0.dcache.overall_hits::total       10693878                       # number of overall hits
system.cpu0.dcache.overall_misses::total       111387                       # number of overall misses
system.cpu0.dcache.overall_accesses::total     10805265                       # number of overall (read+write) accesses
system.cpu0.dcache.overall_miss_rate::total     0.010309                       # miss rate for overall accesses
system.cpu0.icache.overall_hits::total       38613254                       # number of overall hits
system.cpu0.icache.overall_misses::total       532403                       # number of overall misses
system.cpu0.icache.overall_accesses::total     39145657                       # number of overall (read+write) accesses
system.cpu0.icache.overall_miss_rate::total     0.013601                       # miss rate for overall accesses
system.cpu1.dcache.overall_hits::total        8042137                       # number of overall hits
system.cpu1.dcache.overall_misses::total       171194                       # number of overall misses
system.cpu1.dcache.overall_accesses::total      8213331                       # number of overall (read+write) accesses
system.cpu1.dcache.overall_miss_rate::total     0.020843                       # miss rate for overall accesses
system.cpu1.icache.overall_hits::total       27430501                       # number of overall hits
system.cpu1.icache.overall_misses::total       309584                       # number of overall misses
system.cpu1.icache.overall_accesses::total     27740085                       # number of overall (read+write) accesses
system.cpu1.icache.overall_miss_rate::total     0.011160                       # miss rate for overall accesses
system.cpu2.dcache.overall_hits::total       13960042                       # number of overall hits
system.cpu2.dcache.overall_misses::total       265494                       # number of overall misses
system.cpu2.dcache.overall_accesses::total     14225536                       # number of overall (read+write) accesses
system.cpu2.dcache.overall_miss_rate::total     0.018663                       # miss rate for overall accesses
system.cpu2.icache.overall_hits::total       48798881                       # number of overall hits
system.cpu2.icache.overall_misses::total       150535                       # number of overall misses
system.cpu2.icache.overall_accesses::total     48949416                       # number of overall (read+write) accesses
system.cpu2.icache.overall_miss_rate::total     0.003075                       # miss rate for overall accesses
system.cpu3.dcache.overall_hits::total       13119792                       # number of overall hits
system.cpu3.dcache.overall_misses::total       139132                       # number of overall misses
system.cpu3.dcache.overall_accesses::total     13258924                       # number of overall (read+write) accesses
system.cpu3.dcache.overall_miss_rate::total     0.010493                       # miss rate for overall accesses
system.cpu3.icache.overall_hits::total       47759495                       # number of overall hits
system.cpu3.icache.overall_misses::total       491352                       # number of overall misses
system.cpu3.icache.overall_accesses::total     48250847                       # number of overall (read+write) accesses
system.cpu3.icache.overall_miss_rate::total     0.010183                       # miss rate for overall accesses
system.l2.overall_hits::total                 1955064                       # number of overall hits
system.l2.overall_misses::total                413526                       # number of overall misses
system.l2.overall_accesses::total             2368590                       # number of overall (read+write) accesses
system.l2.overall_miss_rate::total           0.174587                       # miss rate for overall accesses
---------- End Simulation Statistics   ----------
---------- Begin Simulation Statistics ----------
system.cpu0.dcache.overall_hits::total       21918135                       # number of overall hits
system.cpu0.dcache.overall_misses::total       549508                       # number of overall misses
system.cpu0.dcache.overall_accesses::total     22467643                       # number of overall (read+write) accesses
system.cpu0.dcache.overall_miss_rate::total     0.024458                       # miss rate for overall accesses
system.cpu0.icache.overall_hits::total       75465087                       # number of overall hits
system.cpu0.icache.overall_misses::total       753214                       # number of overall misses
system.cpu0.icache.overall_accesses::total     76218301                       # number of overall (read+write) accesses
system.cpu0.icache.overall_miss_rate::total     0.009882                       # miss rate for overall accesses
system.cpu1.dcache.overall_hits::total       15254002                       # number of overall hits
system.cpu1.dcache.overall_misses::total       283806                       # number of overall misses
system.cpu1.dcache.overall_accesses::total     15537808                       # number of overall (read+write) accesses
system.cpu1.dcache.overall_miss_rate::total     0.018266                       # miss rate for overall accesses
system.cpu1.icache.overall_hits::total       54509087                       # number of overall hits
system.cpu1.icache.overall_misses::total       575977                       # number of overall misses
system.cpu1.icache.overall_accesses::total     55085064                       # number of overall (read+write) accesses
system.cpu1.icache.overall_miss_rate::total     0.010456                       # miss rate for overall accesses
system.cpu2.dcache.overall_hits::total       19250410                       # number of overall hits
system.cpu2.dcache.overall_misses::total       579817                       # number of overall misses
system.cpu2.dcache.overall_accesses::total     19830227                       # number of overall (read+write) accesses
system.cpu2.dcache.overall_miss_rate::total     0.029239                       # miss rate for overall accesses
system.cpu2.icache.overall_hits::total       64211977                       # number of overall hits
system.cpu2.icache.overall_misses::total       532187                       # number of overall misses
system.cpu2.icache.overall_accesses::total     64744164                       # number of overall (read+write) accesses
system.cpu2.icache.overall_miss_rate::total     0.008220                       # miss rate for overall accesses
system.cpu3.dcache.overall_hits::total       19069233                       # number of overall hits
system.cpu3.dcache.overall_misses::total       559446                       # number of overall misses
system.cpu3.dcache.overall_accesses::total     19628679                       # number of overall (read+write) accesses
system.cpu3.dcache.overall_miss_rate::total     0.028501                       # miss rate for overall accesses
system.cpu3.icache.overall_hits::total       64248236                       # number of overall hits
system.cpu3.icache.overall_misses::total       560530                       # number of overall misses
system.cpu3.icache.overall_accesses::total     64808766                       # number of overall (read+write) accesses
system.cpu3.icache.overall_miss_rate::total     0.008649                       # miss rate for overall accesses
system.l2.overall_hits::total                 5029269                       # number of overall hits
system.l2.overall_misses::total                658086                       # number of overall misses
system.l2.overall_accesses::total             5687355                       # number of overall (read+write) accesses
system.l2.overall_miss_rate::total           0.115710                       # miss rate for overall accesses
---------- End Simulation Statistics   ----------
