---------- Begin Simulation Statistics ----------
system.cpu0.dcache.overall_hits::total       22991411                       # number of overall hits
system.cpu0.dcache.overall_misses::total      2039003                       # number of overall misses
system.cpu0.dcache.overall_accesses::total     25030414                       # number of overall (read+write) accesses
system.cpu0.dcache.overall_miss_rate::total     0.081461                       # miss rate for overall accesses
system.cpu0.icache.overall_hits::total      283108598                       # number of overall hits
system.cpu0.icache.overall_misses::total       621361                       # number of overall misses
system.cpu0.icache.overall_accesses::total    283729959                       # number of overall (read+write) accesses
system.cpu0.icache.overall_miss_rate::total     0.002190                       # miss rate for overall accesses
system.cpu1.dcache.overall_hits::total        2643600                       # number of overall hits
system.cpu1.dcache.overall_misses::total       386089                       # number of overall misses
system.cpu1.dcache.overall_accesses::total      3029689                       # number of overall (read+write) accesses
system.cpu1.dcache.overall_miss_rate::total     0.127435                       # miss rate for overall accesses
system.cpu1.icache.overall_hits::total       13686117                       # number of overall hits
system.cpu1.icache.overall_misses::total        44613                       # number of overall misses
system.cpu1.icache.overall_accesses::total     13730730                       # number of overall (read+write) accesses
system.cpu1.icache.overall_miss_rate::total     0.003249                       # miss rate for overall accesses
system.cpu2.dcache.overall_hits::total        2182695                       # number of overall hits
system.cpu2.dcache.overall_misses::total        56969                       # number of overall misses
system.cpu2.dcache.overall_accesses::total      2239664                       # number of overall (read+write) accesses
system.cpu2.dcache.overall_miss_rate::total     0.025436                       # miss rate for overall accesses
system.cpu2.icache.overall_hits::total        8091908                       # number of overall hits
system.cpu2.icache.overall_misses::total        47929                       # number of overall misses
system.cpu2.icache.overall_accesses::total      8139837                       # number of overall (read+write) accesses
system.cpu2.icache.overall_miss_rate::total     0.005888                       # miss rate for overall accesses
system.cpu3.dcache.overall_hits::total        2316307                       # number of overall hits
system.cpu3.dcache.overall_misses::total        63997                       # number of overall misses
system.cpu3.dcache.overall_accesses::total      2380304                       # number of overall (read+write) accesses
system.cpu3.dcache.overall_miss_rate::total     0.026886                       # miss rate for overall accesses
system.cpu3.icache.overall_hits::total        7818426                       # number of overall hits
system.cpu3.icache.overall_misses::total        44974                       # number of overall misses
system.cpu3.icache.overall_accesses::total      7863400                       # number of overall (read+write) accesses
system.cpu3.icache.overall_miss_rate::total     0.005719                       # miss rate for overall accesses
system.l2.overall_hits::total                 2354388                       # number of overall hits
system.l2.overall_misses::total                576690                       # number of overall misses
system.l2.overall_accesses::total             2931078                       # number of overall (read+write) accesses
system.l2.overall_miss_rate::total           0.196750                       # miss rate for overall accesses
---------- End Simulation Statistics   ----------
---------- Begin Simulation Statistics ----------
system.cpu0.dcache.overall_hits::total         433997                       # number of overall hits
system.cpu0.dcache.overall_misses::total        10746                       # number of overall misses
system.cpu0.dcache.overall_accesses::total       444743                       # number of overall (read+write) accesses
system.cpu0.dcache.overall_miss_rate::total     0.024162                       # miss rate for overall accesses
system.cpu0.icache.overall_hits::total        1128688                       # number of overall hits
system.cpu0.icache.overall_misses::total         8070                       # number of overall misses
system.cpu0.icache.overall_accesses::total      1136758                       # number of overall (read+write) accesses
system.cpu0.icache.overall_miss_rate::total     0.007099                       # miss rate for overall accesses
system.cpu1.dcache.overall_hits::total         469114                       # number of overall hits
system.cpu1.dcache.overall_misses::total        11793                       # number of overall misses
system.cpu1.dcache.overall_accesses::total       480907                       # number of overall (read+write) accesses
system.cpu1.dcache.overall_miss_rate::total     0.024522                       # miss rate for overall accesses
system.cpu1.icache.overall_hits::total        1227915                       # number of overall hits
system.cpu1.icache.overall_misses::total         8330                       # number of overall misses
system.cpu1.icache.overall_accesses::total      1236245                       # number of overall (read+write) accesses
system.cpu1.icache.overall_miss_rate::total     0.006738                       # miss rate for overall accesses
system.cpu2.dcache.overall_hits::total       17842167                       # number of overall hits
system.cpu2.dcache.overall_misses::total       427224                       # number of overall misses
system.cpu2.dcache.overall_accesses::total     18269391                       # number of overall (read+write) accesses
system.cpu2.dcache.overall_miss_rate::total     0.023385                       # miss rate for overall accesses
system.cpu2.icache.overall_hits::total       54966407                       # number of overall hits
system.cpu2.icache.overall_misses::total        62603                       # number of overall misses
system.cpu2.icache.overall_accesses::total     55029010                       # number of overall (read+write) accesses
system.cpu2.icache.overall_miss_rate::total     0.001138                       # miss rate for overall accesses
system.cpu3.dcache.overall_hits::total      445527180                       # number of overall hits
system.cpu3.dcache.overall_misses::total     16960411                       # number of overall misses
system.cpu3.dcache.overall_accesses::total    462487591                       # number of overall (read+write) accesses
system.cpu3.dcache.overall_miss_rate::total     0.036672                       # miss rate for overall accesses
system.cpu3.icache.overall_hits::total     1456952152                       # number of overall hits
system.cpu3.icache.overall_misses::total      3772426                       # number of overall misses
system.cpu3.icache.overall_accesses::total   1460724578                       # number of overall (read+write) accesses
system.cpu3.icache.overall_miss_rate::total     0.002583                       # miss rate for overall accesses
system.l2.overall_hits::total                41572779                       # number of overall hits
system.l2.overall_misses::total               7674982                       # number of overall misses
system.l2.overall_accesses::total            49247761                       # number of overall (read+write) accesses
system.l2.overall_miss_rate::total           0.155844                       # miss rate for overall accesses
---------- End Simulation Statistics   ----------
---------- Begin Simulation Statistics ----------
system.cpu0.dcache.overall_hits::total       21138065                       # number of overall hits
system.cpu0.dcache.overall_misses::total      1545038                       # number of overall misses
system.cpu0.dcache.overall_accesses::total     22683103                       # number of overall (read+write) accesses
system.cpu0.dcache.overall_miss_rate::total     0.068114                       # miss rate for overall accesses
system.cpu0.icache.overall_hits::total       88693521                       # number of overall hits
system.cpu0.icache.overall_misses::total        25411                       # number of overall misses
system.cpu0.icache.overall_accesses::total     88718932                       # number of overall (read+write) accesses
system.cpu0.icache.overall_miss_rate::total     0.000286                       # miss rate for overall accesses
system.cpu1.dcache.overall_hits::total       23561717                       # number of overall hits
system.cpu1.dcache.overall_misses::total      1721592                       # number of overall misses
system.cpu1.dcache.overall_accesses::total     25283309                       # number of overall (read+write) accesses
system.cpu1.dcache.overall_miss_rate::total     0.068092                       # miss rate for overall accesses
system.cpu1.icache.overall_hits::total       99364144                       # number of overall hits
system.cpu1.icache.overall_misses::total        37489                       # number of overall misses
system.cpu1.icache.overall_accesses::total     99401633                       # number of overall (read+write) accesses
system.cpu1.icache.overall_miss_rate::total     0.000377                       # miss rate for overall accesses
system.cpu2.dcache.overall_hits::total       21530605                       # number of overall hits
system.cpu2.dcache.overall_misses::total      1570066                       # number of overall misses
system.cpu2.dcache.overall_accesses::total     23100671                       # number of overall (read+write) accesses
system.cpu2.dcache.overall_miss_rate::total     0.067966                       # miss rate for overall accesses
system.cpu2.icache.overall_hits::total       90617341                       # number of overall hits
system.cpu2.icache.overall_misses::total        34763                       # number of overall misses
system.cpu2.icache.overall_accesses::total     90652104                       # number of overall (read+write) accesses
system.cpu2.icache.overall_miss_rate::total     0.000383                       # miss rate for overall accesses
system.cpu3.dcache.overall_hits::total       18581119                       # number of overall hits
system.cpu3.dcache.overall_misses::total      1364474                       # number of overall misses
system.cpu3.dcache.overall_accesses::total     19945593                       # number of overall (read+write) accesses
system.cpu3.dcache.overall_miss_rate::total     0.068410                       # miss rate for overall accesses
system.cpu3.icache.overall_hits::total       78258972                       # number of overall hits
system.cpu3.icache.overall_misses::total        25166                       # number of overall misses
system.cpu3.icache.overall_accesses::total     78284138                       # number of overall (read+write) accesses
system.cpu3.icache.overall_miss_rate::total     0.000321                       # miss rate for overall accesses
system.l2.overall_hits::total                14507575                       # number of overall hits
system.l2.overall_misses::total               4011836                       # number of overall misses
system.l2.overall_accesses::total            18519411                       # number of overall (read+write) accesses
system.l2.overall_miss_rate::total           0.216629                       # miss rate for overall accesses
---------- End Simulation Statistics   ----------
---------- Begin Simulation Statistics ----------
system.cpu0.dcache.overall_hits::total          38398                       # number of overall hits
system.cpu0.dcache.overall_misses::total         1075                       # number of overall misses
system.cpu0.dcache.overall_accesses::total        39473                       # number of overall (read+write) accesses
system.cpu0.dcache.overall_miss_rate::total     0.027234                       # miss rate for overall accesses
system.cpu0.icache.overall_hits::total          97805                       # number of overall hits
system.cpu0.icache.overall_misses::total          316                       # number of overall misses
system.cpu0.icache.overall_accesses::total        98121                       # number of overall (read+write) accesses
system.cpu0.icache.overall_miss_rate::total     0.003221                       # miss rate for overall accesses
system.cpu1.dcache.overall_hits::total       30452644                       # number of overall hits
system.cpu1.dcache.overall_misses::total      4520782                       # number of overall misses
system.cpu1.dcache.overall_accesses::total     34973426                       # number of overall (read+write) accesses
system.cpu1.dcache.overall_miss_rate::total     0.129263                       # miss rate for overall accesses
system.cpu1.icache.overall_hits::total      116146781                       # number of overall hits
system.cpu1.icache.overall_misses::total         3901                       # number of overall misses
system.cpu1.icache.overall_accesses::total    116150682                       # number of overall (read+write) accesses
system.cpu1.icache.overall_miss_rate::total     0.000034                       # miss rate for overall accesses
system.cpu2.dcache.overall_hits::total          77789                       # number of overall hits
system.cpu2.dcache.overall_misses::total         3356                       # number of overall misses
system.cpu2.dcache.overall_accesses::total        81145                       # number of overall (read+write) accesses
system.cpu2.dcache.overall_miss_rate::total     0.041358                       # miss rate for overall accesses
system.cpu2.icache.overall_hits::total         217566                       # number of overall hits
system.cpu2.icache.overall_misses::total         1839                       # number of overall misses
system.cpu2.icache.overall_accesses::total       219405                       # number of overall (read+write) accesses
system.cpu2.icache.overall_miss_rate::total     0.008382                       # miss rate for overall accesses
system.cpu3.dcache.overall_hits::total          39161                       # number of overall hits
system.cpu3.dcache.overall_misses::total         1264                       # number of overall misses
system.cpu3.dcache.overall_accesses::total        40425                       # number of overall (read+write) accesses
system.cpu3.dcache.overall_miss_rate::total     0.031268                       # miss rate for overall accesses
system.cpu3.icache.overall_hits::total         100364                       # number of overall hits
system.cpu3.icache.overall_misses::total          375                       # number of overall misses
system.cpu3.icache.overall_accesses::total       100739                       # number of overall (read+write) accesses
system.cpu3.icache.overall_miss_rate::total     0.003722                       # miss rate for overall accesses
system.l2.overall_hits::total                 8261342                       # number of overall hits
system.l2.overall_misses::total               3541357                       # number of overall misses
system.l2.overall_accesses::total            11802699                       # number of overall (read+write) accesses
system.l2.overall_miss_rate::total           0.300046                       # miss rate for overall accesses
---------- End Simulation Statistics   ----------
