---------- Begin Simulation Statistics ----------
system.cpu0.dcache.overall_hits::total       23017365                       # number of overall hits
system.cpu0.dcache.overall_misses::total      2012772                       # number of overall misses
system.cpu0.dcache.overall_accesses::total     25030137                       # number of overall (read+write) accesses
system.cpu0.dcache.overall_miss_rate::total     0.080414                       # miss rate for overall accesses
system.cpu0.icache.overall_hits::total      283106968                       # number of overall hits
system.cpu0.icache.overall_misses::total       622276                       # number of overall misses
system.cpu0.icache.overall_accesses::total    283729244                       # number of overall (read+write) accesses
system.cpu0.icache.overall_miss_rate::total     0.002193                       # miss rate for overall accesses
system.cpu1.dcache.overall_hits::total        2643548                       # number of overall hits
system.cpu1.dcache.overall_misses::total       386259                       # number of overall misses
system.cpu1.dcache.overall_accesses::total      3029807                       # number of overall (read+write) accesses
system.cpu1.dcache.overall_miss_rate::total     0.127486                       # miss rate for overall accesses
system.cpu1.icache.overall_hits::total       13686871                       # number of overall hits
system.cpu1.icache.overall_misses::total        44602                       # number of overall misses
system.cpu1.icache.overall_accesses::total     13731473                       # number of overall (read+write) accesses
system.cpu1.icache.overall_miss_rate::total     0.003248                       # miss rate for overall accesses
system.cpu2.dcache.overall_hits::total        2182582                       # number of overall hits
system.cpu2.dcache.overall_misses::total        57082                       # number of overall misses
system.cpu2.dcache.overall_accesses::total      2239664                       # number of overall (read+write) accesses
system.cpu2.dcache.overall_miss_rate::total     0.025487                       # miss rate for overall accesses
system.cpu2.icache.overall_hits::total        8091880                       # number of overall hits
system.cpu2.icache.overall_misses::total        47957                       # number of overall misses
system.cpu2.icache.overall_accesses::total      8139837                       # number of overall (read+write) accesses
system.cpu2.icache.overall_miss_rate::total     0.005892                       # miss rate for overall accesses
system.cpu3.dcache.overall_hits::total        2320273                       # number of overall hits
system.cpu3.dcache.overall_misses::total        64169                       # number of overall misses
system.cpu3.dcache.overall_accesses::total      2384442                       # number of overall (read+write) accesses
system.cpu3.dcache.overall_miss_rate::total     0.026912                       # miss rate for overall accesses
system.cpu3.icache.overall_hits::total        7830497                       # number of overall hits
system.cpu3.icache.overall_misses::total        45118                       # number of overall misses
system.cpu3.icache.overall_accesses::total      7875615                       # number of overall (read+write) accesses
system.cpu3.icache.overall_miss_rate::total     0.005729                       # miss rate for overall accesses
system.l2.overall_hits::total                 2297986                       # number of overall hits
system.l2.overall_misses::total                608769                       # number of overall misses
system.l2.overall_accesses::total             2906755                       # number of overall (read+write) accesses
system.l2.overall_miss_rate::total           0.209433                       # miss rate for overall accesses
---------- End Simulation Statistics   ----------
---------- Begin Simulation Statistics ----------
system.cpu0.dcache.overall_hits::total         237046                       # number of overall hits
system.cpu0.dcache.overall_misses::total        11494                       # number of overall misses
system.cpu0.dcache.overall_accesses::total       248540                       # number of overall (read+write) accesses
system.cpu0.dcache.overall_miss_rate::total     0.046246                       # miss rate for overall accesses
system.cpu0.icache.overall_hits::total         710961                       # number of overall hits
system.cpu0.icache.overall_misses::total        12119                       # number of overall misses
system.cpu0.icache.overall_accesses::total       723080                       # number of overall (read+write) accesses
system.cpu0.icache.overall_miss_rate::total     0.016760                       # miss rate for overall accesses
system.cpu1.dcache.overall_hits::total         159081                       # number of overall hits
system.cpu1.dcache.overall_misses::total         8826                       # number of overall misses
system.cpu1.dcache.overall_accesses::total       167907                       # number of overall (read+write) accesses
system.cpu1.dcache.overall_miss_rate::total     0.052565                       # miss rate for overall accesses
system.cpu1.icache.overall_hits::total         475684                       # number of overall hits
system.cpu1.icache.overall_misses::total        10299                       # number of overall misses
system.cpu1.icache.overall_accesses::total       485983                       # number of overall (read+write) accesses
system.cpu1.icache.overall_miss_rate::total     0.021192                       # miss rate for overall accesses
system.cpu2.dcache.overall_hits::total         223984                       # number of overall hits
system.cpu2.dcache.overall_misses::total         9154                       # number of overall misses
system.cpu2.dcache.overall_accesses::total       233138                       # number of overall (read+write) accesses
system.cpu2.dcache.overall_miss_rate::total     0.039264                       # miss rate for overall accesses
system.cpu2.icache.overall_hits::total         656791                       # number of overall hits
system.cpu2.icache.overall_misses::total        14024                       # number of overall misses
system.cpu2.icache.overall_accesses::total       670815                       # number of overall (read+write) accesses
system.cpu2.icache.overall_miss_rate::total     0.020906                       # miss rate for overall accesses
system.cpu3.dcache.overall_hits::total         103530                       # number of overall hits
system.cpu3.dcache.overall_misses::total         4072                       # number of overall misses
system.cpu3.dcache.overall_accesses::total       107602                       # number of overall (read+write) accesses
system.cpu3.dcache.overall_miss_rate::total     0.037843                       # miss rate for overall accesses
system.cpu3.icache.overall_hits::total         298661                       # number of overall hits
system.cpu3.icache.overall_misses::total         4378                       # number of overall misses
system.cpu3.icache.overall_accesses::total       303039                       # number of overall (read+write) accesses
system.cpu3.icache.overall_miss_rate::total     0.014447                       # miss rate for overall accesses
system.l2.overall_hits::total                   53273                       # number of overall hits
system.l2.overall_misses::total                  6565                       # number of overall misses
system.l2.overall_accesses::total               59838                       # number of overall (read+write) accesses
system.l2.overall_miss_rate::total           0.109713                       # miss rate for overall accesses
---------- End Simulation Statistics   ----------
