---------- Begin Simulation Statistics ----------
system.cpu0.dcache.overall_hits::total       22991411                       # number of overall hits
system.cpu0.dcache.overall_misses::total      2039003                       # number of overall misses
system.cpu0.dcache.overall_accesses::total     25030414                       # number of overall (read+write) accesses
system.cpu0.dcache.overall_miss_rate::total     0.081461                       # miss rate for overall accesses
system.cpu0.icache.overall_hits::total      283108598                       # number of overall hits
system.cpu0.icache.overall_misses::total       621361                       # number of overall misses
system.cpu0.icache.overall_accesses::total    283729959                       # number of overall (read+write) accesses
system.cpu0.icache.overall_miss_rate::total     0.002190                       # miss rate for overall accesses
system.cpu1.dcache.overall_hits::total        2643600                       # number of overall hits
system.cpu1.dcache.overall_misses::total       386089                       # number of overall misses
system.cpu1.dcache.overall_accesses::total      3029689                       # number of overall (read+write) accesses
system.cpu1.dcache.overall_miss_rate::total     0.127435                       # miss rate for overall accesses
system.cpu1.icache.overall_hits::total       13686117                       # number of overall hits
system.cpu1.icache.overall_misses::total        44613                       # number of overall misses
system.cpu1.icache.overall_accesses::total     13730730                       # number of overall (read+write) accesses
system.cpu1.icache.overall_miss_rate::total     0.003249                       # miss rate for overall accesses
system.cpu2.dcache.overall_hits::total        2182695                       # number of overall hits
system.cpu2.dcache.overall_misses::total        56969                       # number of overall misses
system.cpu2.dcache.overall_accesses::total      2239664                       # number of overall (read+write) accesses
system.cpu2.dcache.overall_miss_rate::total     0.025436                       # miss rate for overall accesses
system.cpu2.icache.overall_hits::total        8091908                       # number of overall hits
system.cpu2.icache.overall_misses::total        47929                       # number of overall misses
system.cpu2.icache.overall_accesses::total      8139837                       # number of overall (read+write) accesses
system.cpu2.icache.overall_miss_rate::total     0.005888                       # miss rate for overall accesses
system.cpu3.dcache.overall_hits::total        2316320                       # number of overall hits
system.cpu3.dcache.overall_misses::total        64006                       # number of overall misses
system.cpu3.dcache.overall_accesses::total      2380326                       # number of overall (read+write) accesses
system.cpu3.dcache.overall_miss_rate::total     0.026890                       # miss rate for overall accesses
system.cpu3.icache.overall_hits::total        7818428                       # number of overall hits
system.cpu3.icache.overall_misses::total        44974                       # number of overall misses
system.cpu3.icache.overall_accesses::total      7863402                       # number of overall (read+write) accesses
system.cpu3.icache.overall_miss_rate::total     0.005719                       # miss rate for overall accesses
system.l2.overall_hits::total                 2354399                       # number of overall hits
system.l2.overall_misses::total                576690                       # number of overall misses
system.l2.overall_accesses::total             2931089                       # number of overall (read+write) accesses
system.l2.overall_miss_rate::total           0.196749                       # miss rate for overall accesses
---------- End Simulation Statistics   ----------
---------- Begin Simulation Statistics ----------
system.cpu0.dcache.overall_hits::total         234474                       # number of overall hits
system.cpu0.dcache.overall_misses::total         7620                       # number of overall misses
system.cpu0.dcache.overall_accesses::total       242094                       # number of overall (read+write) accesses
system.cpu0.dcache.overall_miss_rate::total     0.031475                       # miss rate for overall accesses
system.cpu0.icache.overall_hits::total         719599                       # number of overall hits
system.cpu0.icache.overall_misses::total        11371                       # number of overall misses
system.cpu0.icache.overall_accesses::total       730970                       # number of overall (read+write) accesses
system.cpu0.icache.overall_miss_rate::total     0.015556                       # miss rate for overall accesses
system.cpu1.dcache.overall_hits::total        2718625                       # number of overall hits
system.cpu1.dcache.overall_misses::total       180996                       # number of overall misses
system.cpu1.dcache.overall_accesses::total      2899621                       # number of overall (read+write) accesses
system.cpu1.dcache.overall_miss_rate::total     0.062421                       # miss rate for overall accesses
system.cpu1.icache.overall_hits::total        6452640                       # number of overall hits
system.cpu1.icache.overall_misses::total        15234                       # number of overall misses
system.cpu1.icache.overall_accesses::total      6467874                       # number of overall (read+write) accesses
system.cpu1.icache.overall_miss_rate::total     0.002355                       # miss rate for overall accesses
system.cpu2.dcache.overall_hits::total         144164                       # number of overall hits
system.cpu2.dcache.overall_misses::total         5729                       # number of overall misses
system.cpu2.dcache.overall_accesses::total       149893                       # number of overall (read+write) accesses
system.cpu2.dcache.overall_miss_rate::total     0.038221                       # miss rate for overall accesses
system.cpu2.icache.overall_hits::total         402884                       # number of overall hits
system.cpu2.icache.overall_misses::total         4780                       # number of overall misses
system.cpu2.icache.overall_accesses::total       407664                       # number of overall (read+write) accesses
system.cpu2.icache.overall_miss_rate::total     0.011725                       # miss rate for overall accesses
system.cpu3.dcache.overall_hits::total         105368                       # number of overall hits
system.cpu3.dcache.overall_misses::total         3148                       # number of overall misses
system.cpu3.dcache.overall_accesses::total       108516                       # number of overall (read+write) accesses
system.cpu3.dcache.overall_miss_rate::total     0.029010                       # miss rate for overall accesses
system.cpu3.icache.overall_hits::total         309080                       # number of overall hits
system.cpu3.icache.overall_misses::total         4628                       # number of overall misses
system.cpu3.icache.overall_accesses::total       313708                       # number of overall (read+write) accesses
system.cpu3.icache.overall_miss_rate::total     0.014753                       # miss rate for overall accesses
system.l2.overall_hits::total                   85641                       # number of overall hits
system.l2.overall_misses::total                132064                       # number of overall misses
system.l2.overall_accesses::total              217705                       # number of overall (read+write) accesses
system.l2.overall_miss_rate::total           0.606619                       # miss rate for overall accesses
---------- End Simulation Statistics   ----------
---------- Begin Simulation Statistics ----------
system.cpu0.dcache.overall_hits::total       10691894                       # number of overall hits
system.cpu0.dcache.overall_misses::total       113371                       # number of overall misses
system.cpu0.dcache.overall_accesses::total     10805265                       # number of overall (read+write) accesses
system.cpu0.dcache.overall_miss_rate::total     0.010492                       # miss rate for overall accesses
system.cpu0.icache.overall_hits::total       38610110                       # number of overall hits
system.cpu0.icache.overall_misses::total       535547                       # number of overall misses
system.cpu0.icache.overall_accesses::total     39145657                       # number of overall (read+write) accesses
system.cpu0.icache.overall_miss_rate::total     0.013681                       # miss rate for overall accesses
system.cpu1.dcache.overall_hits::total        8039939                       # number of overall hits
system.cpu1.dcache.overall_misses::total       173392                       # number of overall misses
system.cpu1.dcache.overall_accesses::total      8213331                       # number of overall (read+write) accesses
system.cpu1.dcache.overall_miss_rate::total     0.021111                       # miss rate for overall accesses
system.cpu1.icache.overall_hits::total       27430855                       # number of overall hits
system.cpu1.icache.overall_misses::total       309230                       # number of overall misses
system.cpu1.icache.overall_accesses::total     27740085                       # number of overall (read+write) accesses
system.cpu1.icache.overall_miss_rate::total     0.011147                       # miss rate for overall accesses
system.cpu2.dcache.overall_hits::total       13960659                       # number of overall hits
system.cpu2.dcache.overall_misses::total       264877                       # number of overall misses
system.cpu2.dcache.overall_accesses::total     14225536                       # number of overall (read+write) accesses
system.cpu2.dcache.overall_miss_rate::total     0.018620                       # miss rate for overall accesses
system.cpu2.icache.overall_hits::total       48798955                       # number of overall hits
system.cpu2.icache.overall_misses::total       150461                       # number of overall misses
system.cpu2.icache.overall_accesses::total     48949416                       # number of overall (read+write) accesses
system.cpu2.icache.overall_miss_rate::total     0.003074                       # miss rate for overall accesses
system.cpu3.dcache.overall_hits::total       13118536                       # number of overall hits
system.cpu3.dcache.overall_misses::total       140388                       # number of overall misses
system.cpu3.dcache.overall_accesses::total     13258924                       # number of overall (read+write) accesses
system.cpu3.dcache.overall_miss_rate::total     0.010588                       # miss rate for overall accesses
system.cpu3.icache.overall_hits::total       47758708                       # number of overall hits
system.cpu3.icache.overall_misses::total       492139                       # number of overall misses
system.cpu3.icache.overall_accesses::total     48250847                       # number of overall (read+write) accesses
system.cpu3.icache.overall_miss_rate::total     0.010200                       # miss rate for overall accesses
system.l2.overall_hits::total                 2028178                       # number of overall hits
system.l2.overall_misses::total                339035                       # number of overall misses
system.l2.overall_accesses::total             2367213                       # number of overall (read+write) accesses
system.l2.overall_miss_rate::total           0.143221                       # miss rate for overall accesses
---------- End Simulation Statistics   ----------
---------- Begin Simulation Statistics ----------
system.cpu0.dcache.overall_hits::total       21908121                       # number of overall hits
system.cpu0.dcache.overall_misses::total       559522                       # number of overall misses
system.cpu0.dcache.overall_accesses::total     22467643                       # number of overall (read+write) accesses
system.cpu0.dcache.overall_miss_rate::total     0.024903                       # miss rate for overall accesses
system.cpu0.icache.overall_hits::total       75462483                       # number of overall hits
system.cpu0.icache.overall_misses::total       755818                       # number of overall misses
system.cpu0.icache.overall_accesses::total     76218301                       # number of overall (read+write) accesses
system.cpu0.icache.overall_miss_rate::total     0.009916                       # miss rate for overall accesses
system.cpu1.dcache.overall_hits::total       15249520                       # number of overall hits
system.cpu1.dcache.overall_misses::total       288288                       # number of overall misses
system.cpu1.dcache.overall_accesses::total     15537808                       # number of overall (read+write) accesses
system.cpu1.dcache.overall_miss_rate::total     0.018554                       # miss rate for overall accesses
system.cpu1.icache.overall_hits::total       54509092                       # number of overall hits
system.cpu1.icache.overall_misses::total       575972                       # number of overall misses
system.cpu1.icache.overall_accesses::total     55085064                       # number of overall (read+write) accesses
system.cpu1.icache.overall_miss_rate::total     0.010456                       # miss rate for overall accesses
system.cpu2.dcache.overall_hits::total       19237148                       # number of overall hits
system.cpu2.dcache.overall_misses::total       593079                       # number of overall misses
system.cpu2.dcache.overall_accesses::total     19830227                       # number of overall (read+write) accesses
system.cpu2.dcache.overall_miss_rate::total     0.029908                       # miss rate for overall accesses
system.cpu2.icache.overall_hits::total       64211210                       # number of overall hits
system.cpu2.icache.overall_misses::total       532954                       # number of overall misses
system.cpu2.icache.overall_accesses::total     64744164                       # number of overall (read+write) accesses
system.cpu2.icache.overall_miss_rate::total     0.008232                       # miss rate for overall accesses
system.cpu3.dcache.overall_hits::total       19058405                       # number of overall hits
system.cpu3.dcache.overall_misses::total       570274                       # number of overall misses
system.cpu3.dcache.overall_accesses::total     19628679                       # number of overall (read+write) accesses
system.cpu3.dcache.overall_miss_rate::total     0.029053                       # miss rate for overall accesses
system.cpu3.icache.overall_hits::total       64247054                       # number of overall hits
system.cpu3.icache.overall_misses::total       561712                       # number of overall misses
system.cpu3.icache.overall_accesses::total     64808766                       # number of overall (read+write) accesses
system.cpu3.icache.overall_miss_rate::total     0.008667                       # miss rate for overall accesses
system.l2.overall_hits::total                 5190045                       # number of overall hits
system.l2.overall_misses::total                526789                       # number of overall misses
system.l2.overall_accesses::total             5716834                       # number of overall (read+write) accesses
system.l2.overall_miss_rate::total           0.092147                       # miss rate for overall accesses
---------- End Simulation Statistics   ----------
