---------- Begin Simulation Statistics ----------
system.cpu0.dcache.overall_hits::total       22991133                       # number of overall hits
system.cpu0.dcache.overall_misses::total      2039004                       # number of overall misses
system.cpu0.dcache.overall_accesses::total     25030137                       # number of overall (read+write) accesses
system.cpu0.dcache.overall_miss_rate::total     0.081462                       # miss rate for overall accesses
system.cpu0.icache.overall_hits::total      283107898                       # number of overall hits
system.cpu0.icache.overall_misses::total       621346                       # number of overall misses
system.cpu0.icache.overall_accesses::total    283729244                       # number of overall (read+write) accesses
system.cpu0.icache.overall_miss_rate::total     0.002190                       # miss rate for overall accesses
system.cpu1.dcache.overall_hits::total        2643715                       # number of overall hits
system.cpu1.dcache.overall_misses::total       386092                       # number of overall misses
system.cpu1.dcache.overall_accesses::total      3029807                       # number of overall (read+write) accesses
system.cpu1.dcache.overall_miss_rate::total     0.127431                       # miss rate for overall accesses
system.cpu1.icache.overall_hits::total       13686861                       # number of overall hits
system.cpu1.icache.overall_misses::total        44612                       # number of overall misses
system.cpu1.icache.overall_accesses::total     13731473                       # number of overall (read+write) accesses
system.cpu1.icache.overall_miss_rate::total     0.003249                       # miss rate for overall accesses
system.cpu2.dcache.overall_hits::total        2182695                       # number of overall hits
system.cpu2.dcache.overall_misses::total        56969                       # number of overall misses
system.cpu2.dcache.overall_accesses::total      2239664                       # number of overall (read+write) accesses
system.cpu2.dcache.overall_miss_rate::total     0.025436                       # miss rate for overall accesses
system.cpu2.icache.overall_hits::total        8091908                       # number of overall hits
system.cpu2.icache.overall_misses::total        47929                       # number of overall misses
system.cpu2.icache.overall_accesses::total      8139837                       # number of overall (read+write) accesses
system.cpu2.icache.overall_miss_rate::total     0.005888                       # miss rate for overall accesses
system.cpu3.dcache.overall_hits::total        2320439                       # number of overall hits
system.cpu3.dcache.overall_misses::total        64003                       # number of overall misses
system.cpu3.dcache.overall_accesses::total      2384442                       # number of overall (read+write) accesses
system.cpu3.dcache.overall_miss_rate::total     0.026842                       # miss rate for overall accesses
system.cpu3.icache.overall_hits::total        7830482                       # number of overall hits
system.cpu3.icache.overall_misses::total        45133                       # number of overall misses
system.cpu3.icache.overall_accesses::total      7875615                       # number of overall (read+write) accesses
system.cpu3.icache.overall_miss_rate::total     0.005731                       # miss rate for overall accesses
system.l2.overall_hits::total                 2354538                       # number of overall hits
system.l2.overall_misses::total                576694                       # number of overall misses
system.l2.overall_accesses::total             2931232                       # number of overall (read+write) accesses
system.l2.overall_miss_rate::total           0.196741                       # miss rate for overall accesses
---------- End Simulation Statistics   ----------
---------- Begin Simulation Statistics ----------
system.cpu0.dcache.overall_hits::total         237135                       # number of overall hits
system.cpu0.dcache.overall_misses::total        11405                       # number of overall misses
system.cpu0.dcache.overall_accesses::total       248540                       # number of overall (read+write) accesses
system.cpu0.dcache.overall_miss_rate::total     0.045888                       # miss rate for overall accesses
system.cpu0.icache.overall_hits::total         710965                       # number of overall hits
system.cpu0.icache.overall_misses::total        12115                       # number of overall misses
system.cpu0.icache.overall_accesses::total       723080                       # number of overall (read+write) accesses
system.cpu0.icache.overall_miss_rate::total     0.016755                       # miss rate for overall accesses
system.cpu1.dcache.overall_hits::total         159212                       # number of overall hits
system.cpu1.dcache.overall_misses::total         8695                       # number of overall misses
system.cpu1.dcache.overall_accesses::total       167907                       # number of overall (read+write) accesses
system.cpu1.dcache.overall_miss_rate::total     0.051785                       # miss rate for overall accesses
system.cpu1.icache.overall_hits::total         475688                       # number of overall hits
system.cpu1.icache.overall_misses::total        10295                       # number of overall misses
system.cpu1.icache.overall_accesses::total       485983                       # number of overall (read+write) accesses
system.cpu1.icache.overall_miss_rate::total     0.021184                       # miss rate for overall accesses
system.cpu2.dcache.overall_hits::total         224026                       # number of overall hits
system.cpu2.dcache.overall_misses::total         9112                       # number of overall misses
system.cpu2.dcache.overall_accesses::total       233138                       # number of overall (read+write) accesses
system.cpu2.dcache.overall_miss_rate::total     0.039084                       # miss rate for overall accesses
system.cpu2.icache.overall_hits::total         656791                       # number of overall hits
system.cpu2.icache.overall_misses::total        14024                       # number of overall misses
system.cpu2.icache.overall_accesses::total       670815                       # number of overall (read+write) accesses
system.cpu2.icache.overall_miss_rate::total     0.020906                       # miss rate for overall accesses
system.cpu3.dcache.overall_hits::total         103549                       # number of overall hits
system.cpu3.dcache.overall_misses::total         4053                       # number of overall misses
system.cpu3.dcache.overall_accesses::total       107602                       # number of overall (read+write) accesses
system.cpu3.dcache.overall_miss_rate::total     0.037667                       # miss rate for overall accesses
system.cpu3.icache.overall_hits::total         298653                       # number of overall hits
system.cpu3.icache.overall_misses::total         4386                       # number of overall misses
system.cpu3.icache.overall_accesses::total       303039                       # number of overall (read+write) accesses
system.cpu3.icache.overall_miss_rate::total     0.014473                       # miss rate for overall accesses
system.l2.overall_hits::total                   56228                       # number of overall hits
system.l2.overall_misses::total                  3352                       # number of overall misses
system.l2.overall_accesses::total               59580                       # number of overall (read+write) accesses
system.l2.overall_miss_rate::total           0.056260                       # miss rate for overall accesses
---------- End Simulation Statistics   ----------
