---------- Begin Simulation Statistics ----------
system.cpu0.dcache.overall_hits::total       23018213                       # number of overall hits
system.cpu0.dcache.overall_misses::total      2012201                       # number of overall misses
system.cpu0.dcache.overall_accesses::total     25030414                       # number of overall (read+write) accesses
system.cpu0.dcache.overall_miss_rate::total     0.080390                       # miss rate for overall accesses
system.cpu0.icache.overall_hits::total      283107639                       # number of overall hits
system.cpu0.icache.overall_misses::total       622320                       # number of overall misses
system.cpu0.icache.overall_accesses::total    283729959                       # number of overall (read+write) accesses
system.cpu0.icache.overall_miss_rate::total     0.002193                       # miss rate for overall accesses
system.cpu1.dcache.overall_hits::total        2643605                       # number of overall hits
system.cpu1.dcache.overall_misses::total       386084                       # number of overall misses
system.cpu1.dcache.overall_accesses::total      3029689                       # number of overall (read+write) accesses
system.cpu1.dcache.overall_miss_rate::total     0.127434                       # miss rate for overall accesses
system.cpu1.icache.overall_hits::total       13686129                       # number of overall hits
system.cpu1.icache.overall_misses::total        44601                       # number of overall misses
system.cpu1.icache.overall_accesses::total     13730730                       # number of overall (read+write) accesses
system.cpu1.icache.overall_miss_rate::total     0.003248                       # miss rate for overall accesses
system.cpu2.dcache.overall_hits::total        2182506                       # number of overall hits
system.cpu2.dcache.overall_misses::total        57158                       # number of overall misses
system.cpu2.dcache.overall_accesses::total      2239664                       # number of overall (read+write) accesses
system.cpu2.dcache.overall_miss_rate::total     0.025521                       # miss rate for overall accesses
system.cpu2.icache.overall_hits::total        8091886                       # number of overall hits
system.cpu2.icache.overall_misses::total        47951                       # number of overall misses
system.cpu2.icache.overall_accesses::total      8139837                       # number of overall (read+write) accesses
system.cpu2.icache.overall_miss_rate::total     0.005891                       # miss rate for overall accesses
system.cpu3.dcache.overall_hits::total        2315897                       # number of overall hits
system.cpu3.dcache.overall_misses::total        64407                       # number of overall misses
system.cpu3.dcache.overall_accesses::total      2380304                       # number of overall (read+write) accesses
system.cpu3.dcache.overall_miss_rate::total     0.027058                       # miss rate for overall accesses
system.cpu3.icache.overall_hits::total        7818436                       # number of overall hits
system.cpu3.icache.overall_misses::total        44964                       # number of overall misses
system.cpu3.icache.overall_accesses::total      7863400                       # number of overall (read+write) accesses
system.cpu3.icache.overall_miss_rate::total     0.005718                       # miss rate for overall accesses
system.l2.overall_hits::total                 2291747                       # number of overall hits
system.l2.overall_misses::total                616592                       # number of overall misses
system.l2.overall_accesses::total             2908339                       # number of overall (read+write) accesses
system.l2.overall_miss_rate::total           0.212008                       # miss rate for overall accesses
---------- End Simulation Statistics   ----------
---------- Begin Simulation Statistics ----------
system.cpu0.dcache.overall_hits::total         433867                       # number of overall hits
system.cpu0.dcache.overall_misses::total        10876                       # number of overall misses
system.cpu0.dcache.overall_accesses::total       444743                       # number of overall (read+write) accesses
system.cpu0.dcache.overall_miss_rate::total     0.024455                       # miss rate for overall accesses
system.cpu0.icache.overall_hits::total        1128673                       # number of overall hits
system.cpu0.icache.overall_misses::total         8085                       # number of overall misses
system.cpu0.icache.overall_accesses::total      1136758                       # number of overall (read+write) accesses
system.cpu0.icache.overall_miss_rate::total     0.007112                       # miss rate for overall accesses
system.cpu1.dcache.overall_hits::total         469059                       # number of overall hits
system.cpu1.dcache.overall_misses::total        11848                       # number of overall misses
system.cpu1.dcache.overall_accesses::total       480907                       # number of overall (read+write) accesses
system.cpu1.dcache.overall_miss_rate::total     0.024637                       # miss rate for overall accesses
system.cpu1.icache.overall_hits::total        1227905                       # number of overall hits
system.cpu1.icache.overall_misses::total         8340                       # number of overall misses
system.cpu1.icache.overall_accesses::total      1236245                       # number of overall (read+write) accesses
system.cpu1.icache.overall_miss_rate::total     0.006746                       # miss rate for overall accesses
system.cpu2.dcache.overall_hits::total       17841275                       # number of overall hits
system.cpu2.dcache.overall_misses::total       428116                       # number of overall misses
system.cpu2.dcache.overall_accesses::total     18269391                       # number of overall (read+write) accesses
system.cpu2.dcache.overall_miss_rate::total     0.023434                       # miss rate for overall accesses
system.cpu2.icache.overall_hits::total       54966696                       # number of overall hits
system.cpu2.icache.overall_misses::total        62314                       # number of overall misses
system.cpu2.icache.overall_accesses::total     55029010                       # number of overall (read+write) accesses
system.cpu2.icache.overall_miss_rate::total     0.001132                       # miss rate for overall accesses
system.cpu3.dcache.overall_hits::total      445470307                       # number of overall hits
system.cpu3.dcache.overall_misses::total     17017284                       # number of overall misses
system.cpu3.dcache.overall_accesses::total    462487591                       # number of overall (read+write) accesses
system.cpu3.dcache.overall_miss_rate::total     0.036795                       # miss rate for overall accesses
system.cpu3.icache.overall_hits::total     1456968296                       # number of overall hits
system.cpu3.icache.overall_misses::total      3756282                       # number of overall misses
system.cpu3.icache.overall_accesses::total   1460724578                       # number of overall (read+write) accesses
system.cpu3.icache.overall_miss_rate::total     0.002572                       # miss rate for overall accesses
system.l2.overall_hits::total                41628952                       # number of overall hits
system.l2.overall_misses::total               7695047                       # number of overall misses
system.l2.overall_accesses::total            49323999                       # number of overall (read+write) accesses
system.l2.overall_miss_rate::total           0.156010                       # miss rate for overall accesses
---------- End Simulation Statistics   ----------
---------- Begin Simulation Statistics ----------
system.cpu0.dcache.overall_hits::total       21135549                       # number of overall hits
system.cpu0.dcache.overall_misses::total      1547554                       # number of overall misses
system.cpu0.dcache.overall_accesses::total     22683103                       # number of overall (read+write) accesses
system.cpu0.dcache.overall_miss_rate::total     0.068225                       # miss rate for overall accesses
system.cpu0.icache.overall_hits::total       88693514                       # number of overall hits
system.cpu0.icache.overall_misses::total        25418                       # number of overall misses
system.cpu0.icache.overall_accesses::total     88718932                       # number of overall (read+write) accesses
system.cpu0.icache.overall_miss_rate::total     0.000287                       # miss rate for overall accesses
system.cpu1.dcache.overall_hits::total       23559886                       # number of overall hits
system.cpu1.dcache.overall_misses::total      1723423                       # number of overall misses
system.cpu1.dcache.overall_accesses::total     25283309                       # number of overall (read+write) accesses
system.cpu1.dcache.overall_miss_rate::total     0.068164                       # miss rate for overall accesses
system.cpu1.icache.overall_hits::total       99364148                       # number of overall hits
system.cpu1.icache.overall_misses::total        37485                       # number of overall misses
system.cpu1.icache.overall_accesses::total     99401633                       # number of overall (read+write) accesses
system.cpu1.icache.overall_miss_rate::total     0.000377                       # miss rate for overall accesses
system.cpu2.dcache.overall_hits::total       21528027                       # number of overall hits
system.cpu2.dcache.overall_misses::total      1572644                       # number of overall misses
system.cpu2.dcache.overall_accesses::total     23100671                       # number of overall (read+write) accesses
system.cpu2.dcache.overall_miss_rate::total     0.068078                       # miss rate for overall accesses
system.cpu2.icache.overall_hits::total       90617312                       # number of overall hits
system.cpu2.icache.overall_misses::total        34792                       # number of overall misses
system.cpu2.icache.overall_accesses::total     90652104                       # number of overall (read+write) accesses
system.cpu2.icache.overall_miss_rate::total     0.000384                       # miss rate for overall accesses
system.cpu3.dcache.overall_hits::total       18579145                       # number of overall hits
system.cpu3.dcache.overall_misses::total      1366448                       # number of overall misses
system.cpu3.dcache.overall_accesses::total     19945593                       # number of overall (read+write) accesses
system.cpu3.dcache.overall_miss_rate::total     0.068509                       # miss rate for overall accesses
system.cpu3.icache.overall_hits::total       78258953                       # number of overall hits
system.cpu3.icache.overall_misses::total        25185                       # number of overall misses
system.cpu3.icache.overall_accesses::total     78284138                       # number of overall (read+write) accesses
system.cpu3.icache.overall_miss_rate::total     0.000322                       # miss rate for overall accesses
system.l2.overall_hits::total                14151714                       # number of overall hits
system.l2.overall_misses::total               4072508                       # number of overall misses
system.l2.overall_accesses::total            18224222                       # number of overall (read+write) accesses
system.l2.overall_miss_rate::total           0.223467                       # miss rate for overall accesses
---------- End Simulation Statistics   ----------
---------- Begin Simulation Statistics ----------
system.cpu0.dcache.overall_hits::total          38389                       # number of overall hits
system.cpu0.dcache.overall_misses::total         1084                       # number of overall misses
system.cpu0.dcache.overall_accesses::total        39473                       # number of overall (read+write) accesses
system.cpu0.dcache.overall_miss_rate::total     0.027462                       # miss rate for overall accesses
system.cpu0.icache.overall_hits::total          97805                       # number of overall hits
system.cpu0.icache.overall_misses::total          316                       # number of overall misses
system.cpu0.icache.overall_accesses::total        98121                       # number of overall (read+write) accesses
system.cpu0.icache.overall_miss_rate::total     0.003221                       # miss rate for overall accesses
system.cpu1.dcache.overall_hits::total       30427131                       # number of overall hits
system.cpu1.dcache.overall_misses::total      4546295                       # number of overall misses
system.cpu1.dcache.overall_accesses::total     34973426                       # number of overall (read+write) accesses
system.cpu1.dcache.overall_miss_rate::total     0.129993                       # miss rate for overall accesses
system.cpu1.icache.overall_hits::total      116146777                       # number of overall hits
system.cpu1.icache.overall_misses::total         3905                       # number of overall misses
system.cpu1.icache.overall_accesses::total    116150682                       # number of overall (read+write) accesses
system.cpu1.icache.overall_miss_rate::total     0.000034                       # miss rate for overall accesses
system.cpu2.dcache.overall_hits::total          77774                       # number of overall hits
system.cpu2.dcache.overall_misses::total         3371                       # number of overall misses
system.cpu2.dcache.overall_accesses::total        81145                       # number of overall (read+write) accesses
system.cpu2.dcache.overall_miss_rate::total     0.041543                       # miss rate for overall accesses
system.cpu2.icache.overall_hits::total         217564                       # number of overall hits
system.cpu2.icache.overall_misses::total         1841                       # number of overall misses
system.cpu2.icache.overall_accesses::total       219405                       # number of overall (read+write) accesses
system.cpu2.icache.overall_miss_rate::total     0.008391                       # miss rate for overall accesses
system.cpu3.dcache.overall_hits::total          39155                       # number of overall hits
system.cpu3.dcache.overall_misses::total         1270                       # number of overall misses
system.cpu3.dcache.overall_accesses::total        40425                       # number of overall (read+write) accesses
system.cpu3.dcache.overall_miss_rate::total     0.031416                       # miss rate for overall accesses
system.cpu3.icache.overall_hits::total         100363                       # number of overall hits
system.cpu3.icache.overall_misses::total          376                       # number of overall misses
system.cpu3.icache.overall_accesses::total       100739                       # number of overall (read+write) accesses
system.cpu3.icache.overall_miss_rate::total     0.003732                       # miss rate for overall accesses
system.l2.overall_hits::total                10458423                       # number of overall hits
system.l2.overall_misses::total               3613152                       # number of overall misses
system.l2.overall_accesses::total            14071575                       # number of overall (read+write) accesses
system.l2.overall_miss_rate::total           0.256770                       # miss rate for overall accesses
---------- End Simulation Statistics   ----------
