---------- Begin Simulation Statistics ----------
system.cpu0.dcache.overall_hits::total       22991411                       # number of overall hits
system.cpu0.dcache.overall_misses::total      2039003                       # number of overall misses
system.cpu0.dcache.overall_accesses::total     25030414                       # number of overall (read+write) accesses
system.cpu0.dcache.overall_miss_rate::total     0.081461                       # miss rate for overall accesses
system.cpu0.icache.overall_hits::total      283108598                       # number of overall hits
system.cpu0.icache.overall_misses::total       621361                       # number of overall misses
system.cpu0.icache.overall_accesses::total    283729959                       # number of overall (read+write) accesses
system.cpu0.icache.overall_miss_rate::total     0.002190                       # miss rate for overall accesses
system.cpu1.dcache.overall_hits::total        2643600                       # number of overall hits
system.cpu1.dcache.overall_misses::total       386089                       # number of overall misses
system.cpu1.dcache.overall_accesses::total      3029689                       # number of overall (read+write) accesses
system.cpu1.dcache.overall_miss_rate::total     0.127435                       # miss rate for overall accesses
system.cpu1.icache.overall_hits::total       13686117                       # number of overall hits
system.cpu1.icache.overall_misses::total        44613                       # number of overall misses
system.cpu1.icache.overall_accesses::total     13730730                       # number of overall (read+write) accesses
system.cpu1.icache.overall_miss_rate::total     0.003249                       # miss rate for overall accesses
system.cpu2.dcache.overall_hits::total        2182695                       # number of overall hits
system.cpu2.dcache.overall_misses::total        56969                       # number of overall misses
system.cpu2.dcache.overall_accesses::total      2239664                       # number of overall (read+write) accesses
system.cpu2.dcache.overall_miss_rate::total     0.025436                       # miss rate for overall accesses
system.cpu2.icache.overall_hits::total        8091908                       # number of overall hits
system.cpu2.icache.overall_misses::total        47929                       # number of overall misses
system.cpu2.icache.overall_accesses::total      8139837                       # number of overall (read+write) accesses
system.cpu2.icache.overall_miss_rate::total     0.005888                       # miss rate for overall accesses
system.cpu3.dcache.overall_hits::total        2316310                       # number of overall hits
system.cpu3.dcache.overall_misses::total        63999                       # number of overall misses
system.cpu3.dcache.overall_accesses::total      2380309                       # number of overall (read+write) accesses
system.cpu3.dcache.overall_miss_rate::total     0.026887                       # miss rate for overall accesses
system.cpu3.icache.overall_hits::total        7818423                       # number of overall hits
system.cpu3.icache.overall_misses::total        44974                       # number of overall misses
system.cpu3.icache.overall_accesses::total      7863397                       # number of overall (read+write) accesses
system.cpu3.icache.overall_miss_rate::total     0.005719                       # miss rate for overall accesses
system.l2.overall_hits::total                 2354389                       # number of overall hits
system.l2.overall_misses::total                576690                       # number of overall misses
system.l2.overall_accesses::total             2931079                       # number of overall (read+write) accesses
system.l2.overall_miss_rate::total           0.196750                       # miss rate for overall accesses
---------- End Simulation Statistics   ----------
---------- Begin Simulation Statistics ----------
system.cpu0.dcache.overall_hits::total           6019                       # number of overall hits
system.cpu0.dcache.overall_misses::total          241                       # number of overall misses
system.cpu0.dcache.overall_accesses::total         6260                       # number of overall (read+write) accesses
system.cpu0.dcache.overall_miss_rate::total     0.038498                       # miss rate for overall accesses
system.cpu0.icache.overall_hits::total          14682                       # number of overall hits
system.cpu0.icache.overall_misses::total           70                       # number of overall misses
system.cpu0.icache.overall_accesses::total        14752                       # number of overall (read+write) accesses
system.cpu0.icache.overall_miss_rate::total     0.004745                       # miss rate for overall accesses
system.cpu1.dcache.overall_hits::total           6034                       # number of overall hits
system.cpu1.dcache.overall_misses::total          222                       # number of overall misses
system.cpu1.dcache.overall_accesses::total         6256                       # number of overall (read+write) accesses
system.cpu1.dcache.overall_miss_rate::total     0.035486                       # miss rate for overall accesses
system.cpu1.icache.overall_hits::total          14702                       # number of overall hits
system.cpu1.icache.overall_misses::total           70                       # number of overall misses
system.cpu1.icache.overall_accesses::total        14772                       # number of overall (read+write) accesses
system.cpu1.icache.overall_miss_rate::total     0.004739                       # miss rate for overall accesses
system.cpu2.dcache.overall_hits::total         132509                       # number of overall hits
system.cpu2.dcache.overall_misses::total         6744                       # number of overall misses
system.cpu2.dcache.overall_accesses::total       139253                       # number of overall (read+write) accesses
system.cpu2.dcache.overall_miss_rate::total     0.048430                       # miss rate for overall accesses
system.cpu2.icache.overall_hits::total         348254                       # number of overall hits
system.cpu2.icache.overall_misses::total         5150                       # number of overall misses
system.cpu2.icache.overall_accesses::total       353404                       # number of overall (read+write) accesses
system.cpu2.icache.overall_miss_rate::total     0.014573                       # miss rate for overall accesses
system.cpu3.dcache.overall_hits::total          44563                       # number of overall hits
system.cpu3.dcache.overall_misses::total         2304                       # number of overall misses
system.cpu3.dcache.overall_accesses::total        46867                       # number of overall (read+write) accesses
system.cpu3.dcache.overall_miss_rate::total     0.049160                       # miss rate for overall accesses
system.cpu3.icache.overall_hits::total         131606                       # number of overall hits
system.cpu3.icache.overall_misses::total         1545                       # number of overall misses
system.cpu3.icache.overall_accesses::total       133151                       # number of overall (read+write) accesses
system.cpu3.icache.overall_miss_rate::total     0.011603                       # miss rate for overall accesses
system.l2.overall_hits::total                   14256                       # number of overall hits
system.l2.overall_misses::total                   477                       # number of overall misses
system.l2.overall_accesses::total               14733                       # number of overall (read+write) accesses
system.l2.overall_miss_rate::total           0.032376                       # miss rate for overall accesses
---------- End Simulation Statistics   ----------
