---------- Begin Simulation Statistics ----------
system.cpu0.dcache.overall_hits::total       23019513                       # number of overall hits
system.cpu0.dcache.overall_misses::total      2010901                       # number of overall misses
system.cpu0.dcache.overall_accesses::total     25030414                       # number of overall (read+write) accesses
system.cpu0.dcache.overall_miss_rate::total     0.080338                       # miss rate for overall accesses
system.cpu0.icache.overall_hits::total      283107669                       # number of overall hits
system.cpu0.icache.overall_misses::total       622290                       # number of overall misses
system.cpu0.icache.overall_accesses::total    283729959                       # number of overall (read+write) accesses
system.cpu0.icache.overall_miss_rate::total     0.002193                       # miss rate for overall accesses
system.cpu1.dcache.overall_hits::total        2643667                       # number of overall hits
system.cpu1.dcache.overall_misses::total       386024                       # number of overall misses
system.cpu1.dcache.overall_accesses::total      3029691                       # number of overall (read+write) accesses
system.cpu1.dcache.overall_miss_rate::total     0.127414                       # miss rate for overall accesses
system.cpu1.icache.overall_hits::total       13686139                       # number of overall hits
system.cpu1.icache.overall_misses::total        44599                       # number of overall misses
system.cpu1.icache.overall_accesses::total     13730738                       # number of overall (read+write) accesses
system.cpu1.icache.overall_miss_rate::total     0.003248                       # miss rate for overall accesses
system.cpu2.dcache.overall_hits::total        2182562                       # number of overall hits
system.cpu2.dcache.overall_misses::total        57102                       # number of overall misses
system.cpu2.dcache.overall_accesses::total      2239664                       # number of overall (read+write) accesses
system.cpu2.dcache.overall_miss_rate::total     0.025496                       # miss rate for overall accesses
system.cpu2.icache.overall_hits::total        8091889                       # number of overall hits
system.cpu2.icache.overall_misses::total        47948                       # number of overall misses
system.cpu2.icache.overall_accesses::total      8139837                       # number of overall (read+write) accesses
system.cpu2.icache.overall_miss_rate::total     0.005891                       # miss rate for overall accesses
system.cpu3.dcache.overall_hits::total        2315972                       # number of overall hits
system.cpu3.dcache.overall_misses::total        64352                       # number of overall misses
system.cpu3.dcache.overall_accesses::total      2380324                       # number of overall (read+write) accesses
system.cpu3.dcache.overall_miss_rate::total     0.027035                       # miss rate for overall accesses
system.cpu3.icache.overall_hits::total        7818485                       # number of overall hits
system.cpu3.icache.overall_misses::total        44959                       # number of overall misses
system.cpu3.icache.overall_accesses::total      7863444                       # number of overall (read+write) accesses
system.cpu3.icache.overall_miss_rate::total     0.005717                       # miss rate for overall accesses
system.l2.overall_hits::total                 2287701                       # number of overall hits
system.l2.overall_misses::total                608024                       # number of overall misses
system.l2.overall_accesses::total             2895725                       # number of overall (read+write) accesses
system.l2.overall_miss_rate::total           0.209973                       # miss rate for overall accesses
---------- End Simulation Statistics   ----------
---------- Begin Simulation Statistics ----------
system.cpu0.dcache.overall_hits::total         115628                       # number of overall hits
system.cpu0.dcache.overall_misses::total         4434                       # number of overall misses
system.cpu0.dcache.overall_accesses::total       120062                       # number of overall (read+write) accesses
system.cpu0.dcache.overall_miss_rate::total     0.036931                       # miss rate for overall accesses
system.cpu0.icache.overall_hits::total         343699                       # number of overall hits
system.cpu0.icache.overall_misses::total         4836                       # number of overall misses
system.cpu0.icache.overall_accesses::total       348535                       # number of overall (read+write) accesses
system.cpu0.icache.overall_miss_rate::total     0.013875                       # miss rate for overall accesses
system.cpu1.dcache.overall_hits::total         167633                       # number of overall hits
system.cpu1.dcache.overall_misses::total         4136                       # number of overall misses
system.cpu1.dcache.overall_accesses::total       171769                       # number of overall (read+write) accesses
system.cpu1.dcache.overall_miss_rate::total     0.024079                       # miss rate for overall accesses
system.cpu1.icache.overall_hits::total         515052                       # number of overall hits
system.cpu1.icache.overall_misses::total         5225                       # number of overall misses
system.cpu1.icache.overall_accesses::total       520277                       # number of overall (read+write) accesses
system.cpu1.icache.overall_miss_rate::total     0.010043                       # miss rate for overall accesses
system.cpu2.dcache.overall_hits::total         165286                       # number of overall hits
system.cpu2.dcache.overall_misses::total         6440                       # number of overall misses
system.cpu2.dcache.overall_accesses::total       171726                       # number of overall (read+write) accesses
system.cpu2.dcache.overall_miss_rate::total     0.037502                       # miss rate for overall accesses
system.cpu2.icache.overall_hits::total         464679                       # number of overall hits
system.cpu2.icache.overall_misses::total         6506                       # number of overall misses
system.cpu2.icache.overall_accesses::total       471185                       # number of overall (read+write) accesses
system.cpu2.icache.overall_miss_rate::total     0.013808                       # miss rate for overall accesses
system.cpu3.dcache.overall_hits::total          90831                       # number of overall hits
system.cpu3.dcache.overall_misses::total         2469                       # number of overall misses
system.cpu3.dcache.overall_accesses::total        93300                       # number of overall (read+write) accesses
system.cpu3.dcache.overall_miss_rate::total     0.026463                       # miss rate for overall accesses
system.cpu3.icache.overall_hits::total         259635                       # number of overall hits
system.cpu3.icache.overall_misses::total         2670                       # number of overall misses
system.cpu3.icache.overall_accesses::total       262305                       # number of overall (read+write) accesses
system.cpu3.icache.overall_miss_rate::total     0.010179                       # miss rate for overall accesses
system.l2.overall_hits::total                   25570                       # number of overall hits
system.l2.overall_misses::total                  3323                       # number of overall misses
system.l2.overall_accesses::total               28893                       # number of overall (read+write) accesses
system.l2.overall_miss_rate::total           0.115011                       # miss rate for overall accesses
---------- End Simulation Statistics   ----------
---------- Begin Simulation Statistics ----------
system.cpu0.dcache.overall_hits::total       72134192                       # number of overall hits
system.cpu0.dcache.overall_misses::total       871712                       # number of overall misses
system.cpu0.dcache.overall_accesses::total     73005904                       # number of overall (read+write) accesses
system.cpu0.dcache.overall_miss_rate::total     0.011940                       # miss rate for overall accesses
system.cpu0.icache.overall_hits::total      283687921                       # number of overall hits
system.cpu0.icache.overall_misses::total        78707                       # number of overall misses
system.cpu0.icache.overall_accesses::total    283766628                       # number of overall (read+write) accesses
system.cpu0.icache.overall_miss_rate::total     0.000277                       # miss rate for overall accesses
system.cpu1.dcache.overall_hits::total       74129379                       # number of overall hits
system.cpu1.dcache.overall_misses::total       331216                       # number of overall misses
system.cpu1.dcache.overall_accesses::total     74460595                       # number of overall (read+write) accesses
system.cpu1.dcache.overall_miss_rate::total     0.004448                       # miss rate for overall accesses
system.cpu1.icache.overall_hits::total      289335747                       # number of overall hits
system.cpu1.icache.overall_misses::total        81899                       # number of overall misses
system.cpu1.icache.overall_accesses::total    289417646                       # number of overall (read+write) accesses
system.cpu1.icache.overall_miss_rate::total     0.000283                       # miss rate for overall accesses
system.cpu2.dcache.overall_hits::total       71425729                       # number of overall hits
system.cpu2.dcache.overall_misses::total       674566                       # number of overall misses
system.cpu2.dcache.overall_accesses::total     72100295                       # number of overall (read+write) accesses
system.cpu2.dcache.overall_miss_rate::total     0.009356                       # miss rate for overall accesses
system.cpu2.icache.overall_hits::total      280122671                       # number of overall hits
system.cpu2.icache.overall_misses::total        78052                       # number of overall misses
system.cpu2.icache.overall_accesses::total    280200723                       # number of overall (read+write) accesses
system.cpu2.icache.overall_miss_rate::total     0.000279                       # miss rate for overall accesses
system.cpu3.dcache.overall_hits::total       71517639                       # number of overall hits
system.cpu3.dcache.overall_misses::total       441791                       # number of overall misses
system.cpu3.dcache.overall_accesses::total     71959430                       # number of overall (read+write) accesses
system.cpu3.dcache.overall_miss_rate::total     0.006139                       # miss rate for overall accesses
system.cpu3.icache.overall_hits::total      279583461                       # number of overall hits
system.cpu3.icache.overall_misses::total        74512                       # number of overall misses
system.cpu3.icache.overall_accesses::total    279657973                       # number of overall (read+write) accesses
system.cpu3.icache.overall_miss_rate::total     0.000266                       # miss rate for overall accesses
system.l2.overall_hits::total                 2380633                       # number of overall hits
system.l2.overall_misses::total                 75533                       # number of overall misses
system.l2.overall_accesses::total             2456166                       # number of overall (read+write) accesses
system.l2.overall_miss_rate::total           0.030752                       # miss rate for overall accesses
---------- End Simulation Statistics   ----------
