---------- Begin Simulation Statistics ----------
system.cpu0.dcache.overall_hits::total       23018213                       # number of overall hits
system.cpu0.dcache.overall_misses::total      2012201                       # number of overall misses
system.cpu0.dcache.overall_accesses::total     25030414                       # number of overall (read+write) accesses
system.cpu0.dcache.overall_miss_rate::total     0.080390                       # miss rate for overall accesses
system.cpu0.icache.overall_hits::total      283107639                       # number of overall hits
system.cpu0.icache.overall_misses::total       622320                       # number of overall misses
system.cpu0.icache.overall_accesses::total    283729959                       # number of overall (read+write) accesses
system.cpu0.icache.overall_miss_rate::total     0.002193                       # miss rate for overall accesses
system.cpu1.dcache.overall_hits::total        2643605                       # number of overall hits
system.cpu1.dcache.overall_misses::total       386084                       # number of overall misses
system.cpu1.dcache.overall_accesses::total      3029689                       # number of overall (read+write) accesses
system.cpu1.dcache.overall_miss_rate::total     0.127434                       # miss rate for overall accesses
system.cpu1.icache.overall_hits::total       13686129                       # number of overall hits
system.cpu1.icache.overall_misses::total        44601                       # number of overall misses
system.cpu1.icache.overall_accesses::total     13730730                       # number of overall (read+write) accesses
system.cpu1.icache.overall_miss_rate::total     0.003248                       # miss rate for overall accesses
system.cpu2.dcache.overall_hits::total        2182506                       # number of overall hits
system.cpu2.dcache.overall_misses::total        57158                       # number of overall misses
system.cpu2.dcache.overall_accesses::total      2239664                       # number of overall (read+write) accesses
system.cpu2.dcache.overall_miss_rate::total     0.025521                       # miss rate for overall accesses
system.cpu2.icache.overall_hits::total        8091886                       # number of overall hits
system.cpu2.icache.overall_misses::total        47951                       # number of overall misses
system.cpu2.icache.overall_accesses::total      8139837                       # number of overall (read+write) accesses
system.cpu2.icache.overall_miss_rate::total     0.005891                       # miss rate for overall accesses
system.cpu3.dcache.overall_hits::total        2315994                       # number of overall hits
system.cpu3.dcache.overall_misses::total        64410                       # number of overall misses
system.cpu3.dcache.overall_accesses::total      2380404                       # number of overall (read+write) accesses
system.cpu3.dcache.overall_miss_rate::total     0.027058                       # miss rate for overall accesses
system.cpu3.icache.overall_hits::total        7818668                       # number of overall hits
system.cpu3.icache.overall_misses::total        44964                       # number of overall misses
system.cpu3.icache.overall_accesses::total      7863632                       # number of overall (read+write) accesses
system.cpu3.icache.overall_miss_rate::total     0.005718                       # miss rate for overall accesses
system.l2.overall_hits::total                 2291749                       # number of overall hits
system.l2.overall_misses::total                616594                       # number of overall misses
system.l2.overall_accesses::total             2908343                       # number of overall (read+write) accesses
system.l2.overall_miss_rate::total           0.212009                       # miss rate for overall accesses
---------- End Simulation Statistics   ----------
---------- Begin Simulation Statistics ----------
system.cpu0.dcache.overall_hits::total         799442                       # number of overall hits
system.cpu0.dcache.overall_misses::total         3673                       # number of overall misses
system.cpu0.dcache.overall_accesses::total       803115                       # number of overall (read+write) accesses
system.cpu0.dcache.overall_miss_rate::total     0.004573                       # miss rate for overall accesses
system.cpu0.icache.overall_hits::total        3249470                       # number of overall hits
system.cpu0.icache.overall_misses::total         5917                       # number of overall misses
system.cpu0.icache.overall_accesses::total      3255387                       # number of overall (read+write) accesses
system.cpu0.icache.overall_miss_rate::total     0.001818                       # miss rate for overall accesses
system.cpu1.dcache.overall_hits::total         105042                       # number of overall hits
system.cpu1.dcache.overall_misses::total         3964                       # number of overall misses
system.cpu1.dcache.overall_accesses::total       109006                       # number of overall (read+write) accesses
system.cpu1.dcache.overall_miss_rate::total     0.036365                       # miss rate for overall accesses
system.cpu1.icache.overall_hits::total         301852                       # number of overall hits
system.cpu1.icache.overall_misses::total         4787                       # number of overall misses
system.cpu1.icache.overall_accesses::total       306639                       # number of overall (read+write) accesses
system.cpu1.icache.overall_miss_rate::total     0.015611                       # miss rate for overall accesses
system.cpu2.dcache.overall_hits::total       10649567                       # number of overall hits
system.cpu2.dcache.overall_misses::total        20833                       # number of overall misses
system.cpu2.dcache.overall_accesses::total     10670400                       # number of overall (read+write) accesses
system.cpu2.dcache.overall_miss_rate::total     0.001952                       # miss rate for overall accesses
system.cpu2.icache.overall_hits::total       44767491                       # number of overall hits
system.cpu2.icache.overall_misses::total        31376                       # number of overall misses
system.cpu2.icache.overall_accesses::total     44798867                       # number of overall (read+write) accesses
system.cpu2.icache.overall_miss_rate::total     0.000700                       # miss rate for overall accesses
system.cpu3.dcache.overall_hits::total         111569                       # number of overall hits
system.cpu3.dcache.overall_misses::total         4471                       # number of overall misses
system.cpu3.dcache.overall_accesses::total       116040                       # number of overall (read+write) accesses
system.cpu3.dcache.overall_miss_rate::total     0.038530                       # miss rate for overall accesses
system.cpu3.icache.overall_hits::total         331098                       # number of overall hits
system.cpu3.icache.overall_misses::total         5798                       # number of overall misses
system.cpu3.icache.overall_accesses::total       336896                       # number of overall (read+write) accesses
system.cpu3.icache.overall_miss_rate::total     0.017210                       # miss rate for overall accesses
system.l2.overall_hits::total                   59525                       # number of overall hits
system.l2.overall_misses::total                 12832                       # number of overall misses
system.l2.overall_accesses::total               72357                       # number of overall (read+write) accesses
system.l2.overall_miss_rate::total           0.177343                       # miss rate for overall accesses
---------- End Simulation Statistics   ----------
---------- Begin Simulation Statistics ----------
system.cpu0.dcache.overall_hits::total       21453836                       # number of overall hits
system.cpu0.dcache.overall_misses::total        76700                       # number of overall misses
system.cpu0.dcache.overall_accesses::total     21530536                       # number of overall (read+write) accesses
system.cpu0.dcache.overall_miss_rate::total     0.003562                       # miss rate for overall accesses
system.cpu0.icache.overall_hits::total       98808378                       # number of overall hits
system.cpu0.icache.overall_misses::total         8480                       # number of overall misses
system.cpu0.icache.overall_accesses::total     98816858                       # number of overall (read+write) accesses
system.cpu0.icache.overall_miss_rate::total     0.000086                       # miss rate for overall accesses
system.cpu1.dcache.overall_hits::total       20162240                       # number of overall hits
system.cpu1.dcache.overall_misses::total        44214                       # number of overall misses
system.cpu1.dcache.overall_accesses::total     20206454                       # number of overall (read+write) accesses
system.cpu1.dcache.overall_miss_rate::total     0.002188                       # miss rate for overall accesses
system.cpu1.icache.overall_hits::total       92739834                       # number of overall hits
system.cpu1.icache.overall_misses::total         9150                       # number of overall misses
system.cpu1.icache.overall_accesses::total     92748984                       # number of overall (read+write) accesses
system.cpu1.icache.overall_miss_rate::total     0.000099                       # miss rate for overall accesses
system.cpu2.dcache.overall_hits::total       22881957                       # number of overall hits
system.cpu2.dcache.overall_misses::total       105896                       # number of overall misses
system.cpu2.dcache.overall_accesses::total     22987853                       # number of overall (read+write) accesses
system.cpu2.dcache.overall_miss_rate::total     0.004607                       # miss rate for overall accesses
system.cpu2.icache.overall_hits::total      105555200                       # number of overall hits
system.cpu2.icache.overall_misses::total        11273                       # number of overall misses
system.cpu2.icache.overall_accesses::total    105566473                       # number of overall (read+write) accesses
system.cpu2.icache.overall_miss_rate::total     0.000107                       # miss rate for overall accesses
system.cpu3.dcache.overall_hits::total       21488854                       # number of overall hits
system.cpu3.dcache.overall_misses::total        48287                       # number of overall misses
system.cpu3.dcache.overall_accesses::total     21537141                       # number of overall (read+write) accesses
system.cpu3.dcache.overall_miss_rate::total     0.002242                       # miss rate for overall accesses
system.cpu3.icache.overall_hits::total       98828375                       # number of overall hits
system.cpu3.icache.overall_misses::total         8796                       # number of overall misses
system.cpu3.icache.overall_accesses::total     98837171                       # number of overall (read+write) accesses
system.cpu3.icache.overall_miss_rate::total     0.000089                       # miss rate for overall accesses
system.l2.overall_hits::total                  296019                       # number of overall hits
system.l2.overall_misses::total                 23346                       # number of overall misses
system.l2.overall_accesses::total              319365                       # number of overall (read+write) accesses
system.l2.overall_miss_rate::total           0.073101                       # miss rate for overall accesses
---------- End Simulation Statistics   ----------
---------- Begin Simulation Statistics ----------
system.cpu0.dcache.overall_hits::total          14600                       # number of overall hits
system.cpu0.dcache.overall_misses::total          603                       # number of overall misses
system.cpu0.dcache.overall_accesses::total        15203                       # number of overall (read+write) accesses
system.cpu0.dcache.overall_miss_rate::total     0.039663                       # miss rate for overall accesses
system.cpu0.icache.overall_hits::total          36765                       # number of overall hits
system.cpu0.icache.overall_misses::total          275                       # number of overall misses
system.cpu0.icache.overall_accesses::total        37040                       # number of overall (read+write) accesses
system.cpu0.icache.overall_miss_rate::total     0.007424                       # miss rate for overall accesses
system.cpu1.dcache.overall_hits::total        4967633                       # number of overall hits
system.cpu1.dcache.overall_misses::total         8210                       # number of overall misses
system.cpu1.dcache.overall_accesses::total      4975843                       # number of overall (read+write) accesses
system.cpu1.dcache.overall_miss_rate::total     0.001650                       # miss rate for overall accesses
system.cpu1.icache.overall_hits::total       16896010                       # number of overall hits
system.cpu1.icache.overall_misses::total        80817                       # number of overall misses
system.cpu1.icache.overall_accesses::total     16976827                       # number of overall (read+write) accesses
system.cpu1.icache.overall_miss_rate::total     0.004760                       # miss rate for overall accesses
system.cpu2.dcache.overall_hits::total          53786                       # number of overall hits
system.cpu2.dcache.overall_misses::total         2620                       # number of overall misses
system.cpu2.dcache.overall_accesses::total        56406                       # number of overall (read+write) accesses
system.cpu2.dcache.overall_miss_rate::total     0.046449                       # miss rate for overall accesses
system.cpu2.icache.overall_hits::total         154761                       # number of overall hits
system.cpu2.icache.overall_misses::total         1652                       # number of overall misses
system.cpu2.icache.overall_accesses::total       156413                       # number of overall (read+write) accesses
system.cpu2.icache.overall_miss_rate::total     0.010562                       # miss rate for overall accesses
system.cpu3.dcache.overall_hits::total          16482                       # number of overall hits
system.cpu3.dcache.overall_misses::total          672                       # number of overall misses
system.cpu3.dcache.overall_accesses::total        17154                       # number of overall (read+write) accesses
system.cpu3.dcache.overall_miss_rate::total     0.039175                       # miss rate for overall accesses
system.cpu3.icache.overall_hits::total          41749                       # number of overall hits
system.cpu3.icache.overall_misses::total          360                       # number of overall misses
system.cpu3.icache.overall_accesses::total        42109                       # number of overall (read+write) accesses
system.cpu3.icache.overall_miss_rate::total     0.008549                       # miss rate for overall accesses
system.l2.overall_hits::total                   87872                       # number of overall hits
system.l2.overall_misses::total                  5030                       # number of overall misses
system.l2.overall_accesses::total               92902                       # number of overall (read+write) accesses
system.l2.overall_miss_rate::total           0.054143                       # miss rate for overall accesses
---------- End Simulation Statistics   ----------
