---------- Begin Simulation Statistics ----------
system.cpu0.dcache.overall_hits::total       23018213                       # number of overall hits
system.cpu0.dcache.overall_misses::total      2012201                       # number of overall misses
system.cpu0.dcache.overall_accesses::total     25030414                       # number of overall (read+write) accesses
system.cpu0.dcache.overall_miss_rate::total     0.080390                       # miss rate for overall accesses
system.cpu0.icache.overall_hits::total      283107639                       # number of overall hits
system.cpu0.icache.overall_misses::total       622320                       # number of overall misses
system.cpu0.icache.overall_accesses::total    283729959                       # number of overall (read+write) accesses
system.cpu0.icache.overall_miss_rate::total     0.002193                       # miss rate for overall accesses
system.cpu1.dcache.overall_hits::total        2643605                       # number of overall hits
system.cpu1.dcache.overall_misses::total       386084                       # number of overall misses
system.cpu1.dcache.overall_accesses::total      3029689                       # number of overall (read+write) accesses
system.cpu1.dcache.overall_miss_rate::total     0.127434                       # miss rate for overall accesses
system.cpu1.icache.overall_hits::total       13686129                       # number of overall hits
system.cpu1.icache.overall_misses::total        44601                       # number of overall misses
system.cpu1.icache.overall_accesses::total     13730730                       # number of overall (read+write) accesses
system.cpu1.icache.overall_miss_rate::total     0.003248                       # miss rate for overall accesses
system.cpu2.dcache.overall_hits::total        2182506                       # number of overall hits
system.cpu2.dcache.overall_misses::total        57158                       # number of overall misses
system.cpu2.dcache.overall_accesses::total      2239664                       # number of overall (read+write) accesses
system.cpu2.dcache.overall_miss_rate::total     0.025521                       # miss rate for overall accesses
system.cpu2.icache.overall_hits::total        8091886                       # number of overall hits
system.cpu2.icache.overall_misses::total        47951                       # number of overall misses
system.cpu2.icache.overall_accesses::total      8139837                       # number of overall (read+write) accesses
system.cpu2.icache.overall_miss_rate::total     0.005891                       # miss rate for overall accesses
system.cpu3.dcache.overall_hits::total        2315918                       # number of overall hits
system.cpu3.dcache.overall_misses::total        64406                       # number of overall misses
system.cpu3.dcache.overall_accesses::total      2380324                       # number of overall (read+write) accesses
system.cpu3.dcache.overall_miss_rate::total     0.027058                       # miss rate for overall accesses
system.cpu3.icache.overall_hits::total        7818480                       # number of overall hits
system.cpu3.icache.overall_misses::total        44964                       # number of overall misses
system.cpu3.icache.overall_accesses::total      7863444                       # number of overall (read+write) accesses
system.cpu3.icache.overall_miss_rate::total     0.005718                       # miss rate for overall accesses
system.l2.overall_hits::total                 2291747                       # number of overall hits
system.l2.overall_misses::total                616591                       # number of overall misses
system.l2.overall_accesses::total             2908338                       # number of overall (read+write) accesses
system.l2.overall_miss_rate::total           0.212008                       # miss rate for overall accesses
---------- End Simulation Statistics   ----------
---------- Begin Simulation Statistics ----------
system.cpu0.dcache.overall_hits::total         115589                       # number of overall hits
system.cpu0.dcache.overall_misses::total         4473                       # number of overall misses
system.cpu0.dcache.overall_accesses::total       120062                       # number of overall (read+write) accesses
system.cpu0.dcache.overall_miss_rate::total     0.037256                       # miss rate for overall accesses
system.cpu0.icache.overall_hits::total         343700                       # number of overall hits
system.cpu0.icache.overall_misses::total         4835                       # number of overall misses
system.cpu0.icache.overall_accesses::total       348535                       # number of overall (read+write) accesses
system.cpu0.icache.overall_miss_rate::total     0.013872                       # miss rate for overall accesses
system.cpu1.dcache.overall_hits::total         167631                       # number of overall hits
system.cpu1.dcache.overall_misses::total         4138                       # number of overall misses
system.cpu1.dcache.overall_accesses::total       171769                       # number of overall (read+write) accesses
system.cpu1.dcache.overall_miss_rate::total     0.024090                       # miss rate for overall accesses
system.cpu1.icache.overall_hits::total         515052                       # number of overall hits
system.cpu1.icache.overall_misses::total         5225                       # number of overall misses
system.cpu1.icache.overall_accesses::total       520277                       # number of overall (read+write) accesses
system.cpu1.icache.overall_miss_rate::total     0.010043                       # miss rate for overall accesses
system.cpu2.dcache.overall_hits::total         165287                       # number of overall hits
system.cpu2.dcache.overall_misses::total         6439                       # number of overall misses
system.cpu2.dcache.overall_accesses::total       171726                       # number of overall (read+write) accesses
system.cpu2.dcache.overall_miss_rate::total     0.037496                       # miss rate for overall accesses
system.cpu2.icache.overall_hits::total         464680                       # number of overall hits
system.cpu2.icache.overall_misses::total         6505                       # number of overall misses
system.cpu2.icache.overall_accesses::total       471185                       # number of overall (read+write) accesses
system.cpu2.icache.overall_miss_rate::total     0.013806                       # miss rate for overall accesses
system.cpu3.dcache.overall_hits::total          90831                       # number of overall hits
system.cpu3.dcache.overall_misses::total         2469                       # number of overall misses
system.cpu3.dcache.overall_accesses::total        93300                       # number of overall (read+write) accesses
system.cpu3.dcache.overall_miss_rate::total     0.026463                       # miss rate for overall accesses
system.cpu3.icache.overall_hits::total         259636                       # number of overall hits
system.cpu3.icache.overall_misses::total         2669                       # number of overall misses
system.cpu3.icache.overall_accesses::total       262305                       # number of overall (read+write) accesses
system.cpu3.icache.overall_miss_rate::total     0.010175                       # miss rate for overall accesses
system.l2.overall_hits::total                   25983                       # number of overall hits
system.l2.overall_misses::total                  3448                       # number of overall misses
system.l2.overall_accesses::total               29431                       # number of overall (read+write) accesses
system.l2.overall_miss_rate::total           0.117155                       # miss rate for overall accesses
---------- End Simulation Statistics   ----------
---------- Begin Simulation Statistics ----------
system.cpu0.dcache.overall_hits::total      162975620                       # number of overall hits
system.cpu0.dcache.overall_misses::total       933989                       # number of overall misses
system.cpu0.dcache.overall_accesses::total    163909609                       # number of overall (read+write) accesses
system.cpu0.dcache.overall_miss_rate::total     0.005698                       # miss rate for overall accesses
system.cpu0.icache.overall_hits::total      636674898                       # number of overall hits
system.cpu0.icache.overall_misses::total       187216                       # number of overall misses
system.cpu0.icache.overall_accesses::total    636862114                       # number of overall (read+write) accesses
system.cpu0.icache.overall_miss_rate::total     0.000294                       # miss rate for overall accesses
system.cpu1.dcache.overall_hits::total      163112687                       # number of overall hits
system.cpu1.dcache.overall_misses::total       921165                       # number of overall misses
system.cpu1.dcache.overall_accesses::total    164033852                       # number of overall (read+write) accesses
system.cpu1.dcache.overall_miss_rate::total     0.005616                       # miss rate for overall accesses
system.cpu1.icache.overall_hits::total      636999361                       # number of overall hits
system.cpu1.icache.overall_misses::total       186847                       # number of overall misses
system.cpu1.icache.overall_accesses::total    637186208                       # number of overall (read+write) accesses
system.cpu1.icache.overall_miss_rate::total     0.000293                       # miss rate for overall accesses
system.cpu2.dcache.overall_hits::total      150505379                       # number of overall hits
system.cpu2.dcache.overall_misses::total      1253073                       # number of overall misses
system.cpu2.dcache.overall_accesses::total    151758452                       # number of overall (read+write) accesses
system.cpu2.dcache.overall_miss_rate::total     0.008257                       # miss rate for overall accesses
system.cpu2.icache.overall_hits::total      589385008                       # number of overall hits
system.cpu2.icache.overall_misses::total       166208                       # number of overall misses
system.cpu2.icache.overall_accesses::total    589551216                       # number of overall (read+write) accesses
system.cpu2.icache.overall_miss_rate::total     0.000282                       # miss rate for overall accesses
system.cpu3.dcache.overall_hits::total      162984863                       # number of overall hits
system.cpu3.dcache.overall_misses::total      1061912                       # number of overall misses
system.cpu3.dcache.overall_accesses::total    164046775                       # number of overall (read+write) accesses
system.cpu3.dcache.overall_miss_rate::total     0.006473                       # miss rate for overall accesses
system.cpu3.icache.overall_hits::total      637258973                       # number of overall hits
system.cpu3.icache.overall_misses::total       176425                       # number of overall misses
system.cpu3.icache.overall_accesses::total    637435398                       # number of overall (read+write) accesses
system.cpu3.icache.overall_miss_rate::total     0.000277                       # miss rate for overall accesses
system.l2.overall_hits::total                 4552271                       # number of overall hits
system.l2.overall_misses::total                152218                       # number of overall misses
system.l2.overall_accesses::total             4704489                       # number of overall (read+write) accesses
system.l2.overall_miss_rate::total           0.032356                       # miss rate for overall accesses
---------- End Simulation Statistics   ----------
