---------- Begin Simulation Statistics ----------
system.cpu0.dcache.overall_hits::total       23019514                       # number of overall hits
system.cpu0.dcache.overall_misses::total      2010900                       # number of overall misses
system.cpu0.dcache.overall_accesses::total     25030414                       # number of overall (read+write) accesses
system.cpu0.dcache.overall_miss_rate::total     0.080338                       # miss rate for overall accesses
system.cpu0.icache.overall_hits::total      283107669                       # number of overall hits
system.cpu0.icache.overall_misses::total       622290                       # number of overall misses
system.cpu0.icache.overall_accesses::total    283729959                       # number of overall (read+write) accesses
system.cpu0.icache.overall_miss_rate::total     0.002193                       # miss rate for overall accesses
system.cpu1.dcache.overall_hits::total        2643667                       # number of overall hits
system.cpu1.dcache.overall_misses::total       386024                       # number of overall misses
system.cpu1.dcache.overall_accesses::total      3029691                       # number of overall (read+write) accesses
system.cpu1.dcache.overall_miss_rate::total     0.127414                       # miss rate for overall accesses
system.cpu1.icache.overall_hits::total       13686139                       # number of overall hits
system.cpu1.icache.overall_misses::total        44599                       # number of overall misses
system.cpu1.icache.overall_accesses::total     13730738                       # number of overall (read+write) accesses
system.cpu1.icache.overall_miss_rate::total     0.003248                       # miss rate for overall accesses
system.cpu2.dcache.overall_hits::total        2182562                       # number of overall hits
system.cpu2.dcache.overall_misses::total        57102                       # number of overall misses
system.cpu2.dcache.overall_accesses::total      2239664                       # number of overall (read+write) accesses
system.cpu2.dcache.overall_miss_rate::total     0.025496                       # miss rate for overall accesses
system.cpu2.icache.overall_hits::total        8091889                       # number of overall hits
system.cpu2.icache.overall_misses::total        47948                       # number of overall misses
system.cpu2.icache.overall_accesses::total      8139837                       # number of overall (read+write) accesses
system.cpu2.icache.overall_miss_rate::total     0.005891                       # miss rate for overall accesses
system.cpu3.dcache.overall_hits::total        2316012                       # number of overall hits
system.cpu3.dcache.overall_misses::total        64292                       # number of overall misses
system.cpu3.dcache.overall_accesses::total      2380304                       # number of overall (read+write) accesses
system.cpu3.dcache.overall_miss_rate::total     0.027010                       # miss rate for overall accesses
system.cpu3.icache.overall_hits::total        7818441                       # number of overall hits
system.cpu3.icache.overall_misses::total        44959                       # number of overall misses
system.cpu3.icache.overall_accesses::total      7863400                       # number of overall (read+write) accesses
system.cpu3.icache.overall_miss_rate::total     0.005718                       # miss rate for overall accesses
system.l2.overall_hits::total                 2287634                       # number of overall hits
system.l2.overall_misses::total                608034                       # number of overall misses
system.l2.overall_accesses::total             2895668                       # number of overall (read+write) accesses
system.l2.overall_miss_rate::total           0.209981                       # miss rate for overall accesses
---------- End Simulation Statistics   ----------
---------- Begin Simulation Statistics ----------
system.cpu0.dcache.overall_hits::total         433918                       # number of overall hits
system.cpu0.dcache.overall_misses::total        10825                       # number of overall misses
system.cpu0.dcache.overall_accesses::total       444743                       # number of overall (read+write) accesses
system.cpu0.dcache.overall_miss_rate::total     0.024340                       # miss rate for overall accesses
system.cpu0.icache.overall_hits::total        1128674                       # number of overall hits
system.cpu0.icache.overall_misses::total         8084                       # number of overall misses
system.cpu0.icache.overall_accesses::total      1136758                       # number of overall (read+write) accesses
system.cpu0.icache.overall_miss_rate::total     0.007111                       # miss rate for overall accesses
system.cpu1.dcache.overall_hits::total         469057                       # number of overall hits
system.cpu1.dcache.overall_misses::total        11850                       # number of overall misses
system.cpu1.dcache.overall_accesses::total       480907                       # number of overall (read+write) accesses
system.cpu1.dcache.overall_miss_rate::total     0.024641                       # miss rate for overall accesses
system.cpu1.icache.overall_hits::total        1227905                       # number of overall hits
system.cpu1.icache.overall_misses::total         8340                       # number of overall misses
system.cpu1.icache.overall_accesses::total      1236245                       # number of overall (read+write) accesses
system.cpu1.icache.overall_miss_rate::total     0.006746                       # miss rate for overall accesses
system.cpu2.dcache.overall_hits::total       17841462                       # number of overall hits
system.cpu2.dcache.overall_misses::total       427929                       # number of overall misses
system.cpu2.dcache.overall_accesses::total     18269391                       # number of overall (read+write) accesses
system.cpu2.dcache.overall_miss_rate::total     0.023423                       # miss rate for overall accesses
system.cpu2.icache.overall_hits::total       54966683                       # number of overall hits
system.cpu2.icache.overall_misses::total        62326                       # number of overall misses
system.cpu2.icache.overall_accesses::total     55029009                       # number of overall (read+write) accesses
system.cpu2.icache.overall_miss_rate::total     0.001133                       # miss rate for overall accesses
system.cpu3.dcache.overall_hits::total      445475697                       # number of overall hits
system.cpu3.dcache.overall_misses::total     17011896                       # number of overall misses
system.cpu3.dcache.overall_accesses::total    462487593                       # number of overall (read+write) accesses
system.cpu3.dcache.overall_miss_rate::total     0.036783                       # miss rate for overall accesses
system.cpu3.icache.overall_hits::total     1456967736                       # number of overall hits
system.cpu3.icache.overall_misses::total      3756835                       # number of overall misses
system.cpu3.icache.overall_accesses::total   1460724571                       # number of overall (read+write) accesses
system.cpu3.icache.overall_miss_rate::total     0.002572                       # miss rate for overall accesses
system.l2.overall_hits::total                34434695                       # number of overall hits
system.l2.overall_misses::total               7662421                       # number of overall misses
system.l2.overall_accesses::total            42097116                       # number of overall (read+write) accesses
system.l2.overall_miss_rate::total           0.182018                       # miss rate for overall accesses
---------- End Simulation Statistics   ----------
---------- Begin Simulation Statistics ----------
system.cpu0.dcache.overall_hits::total       21135741                       # number of overall hits
system.cpu0.dcache.overall_misses::total      1547362                       # number of overall misses
system.cpu0.dcache.overall_accesses::total     22683103                       # number of overall (read+write) accesses
system.cpu0.dcache.overall_miss_rate::total     0.068217                       # miss rate for overall accesses
system.cpu0.icache.overall_hits::total       88693511                       # number of overall hits
system.cpu0.icache.overall_misses::total        25421                       # number of overall misses
system.cpu0.icache.overall_accesses::total     88718932                       # number of overall (read+write) accesses
system.cpu0.icache.overall_miss_rate::total     0.000287                       # miss rate for overall accesses
system.cpu1.dcache.overall_hits::total       23560103                       # number of overall hits
system.cpu1.dcache.overall_misses::total      1723206                       # number of overall misses
system.cpu1.dcache.overall_accesses::total     25283309                       # number of overall (read+write) accesses
system.cpu1.dcache.overall_miss_rate::total     0.068156                       # miss rate for overall accesses
system.cpu1.icache.overall_hits::total       99364146                       # number of overall hits
system.cpu1.icache.overall_misses::total        37487                       # number of overall misses
system.cpu1.icache.overall_accesses::total     99401633                       # number of overall (read+write) accesses
system.cpu1.icache.overall_miss_rate::total     0.000377                       # miss rate for overall accesses
system.cpu2.dcache.overall_hits::total       21528274                       # number of overall hits
system.cpu2.dcache.overall_misses::total      1572397                       # number of overall misses
system.cpu2.dcache.overall_accesses::total     23100671                       # number of overall (read+write) accesses
system.cpu2.dcache.overall_miss_rate::total     0.068067                       # miss rate for overall accesses
system.cpu2.icache.overall_hits::total       90617312                       # number of overall hits
system.cpu2.icache.overall_misses::total        34792                       # number of overall misses
system.cpu2.icache.overall_accesses::total     90652104                       # number of overall (read+write) accesses
system.cpu2.icache.overall_miss_rate::total     0.000384                       # miss rate for overall accesses
system.cpu3.dcache.overall_hits::total       18579358                       # number of overall hits
system.cpu3.dcache.overall_misses::total      1366235                       # number of overall misses
system.cpu3.dcache.overall_accesses::total     19945593                       # number of overall (read+write) accesses
system.cpu3.dcache.overall_miss_rate::total     0.068498                       # miss rate for overall accesses
system.cpu3.icache.overall_hits::total       78258955                       # number of overall hits
system.cpu3.icache.overall_misses::total        25182                       # number of overall misses
system.cpu3.icache.overall_accesses::total     78284137                       # number of overall (read+write) accesses
system.cpu3.icache.overall_miss_rate::total     0.000322                       # miss rate for overall accesses
system.l2.overall_hits::total                10457016                       # number of overall hits
system.l2.overall_misses::total               4062372                       # number of overall misses
system.l2.overall_accesses::total            14519388                       # number of overall (read+write) accesses
system.l2.overall_miss_rate::total           0.279789                       # miss rate for overall accesses
---------- End Simulation Statistics   ----------
---------- Begin Simulation Statistics ----------
system.cpu0.dcache.overall_hits::total          38389                       # number of overall hits
system.cpu0.dcache.overall_misses::total         1084                       # number of overall misses
system.cpu0.dcache.overall_accesses::total        39473                       # number of overall (read+write) accesses
system.cpu0.dcache.overall_miss_rate::total     0.027462                       # miss rate for overall accesses
system.cpu0.icache.overall_hits::total          97805                       # number of overall hits
system.cpu0.icache.overall_misses::total          316                       # number of overall misses
system.cpu0.icache.overall_accesses::total        98121                       # number of overall (read+write) accesses
system.cpu0.icache.overall_miss_rate::total     0.003221                       # miss rate for overall accesses
system.cpu1.dcache.overall_hits::total       30438227                       # number of overall hits
system.cpu1.dcache.overall_misses::total      4535199                       # number of overall misses
system.cpu1.dcache.overall_accesses::total     34973426                       # number of overall (read+write) accesses
system.cpu1.dcache.overall_miss_rate::total     0.129676                       # miss rate for overall accesses
system.cpu1.icache.overall_hits::total      116146776                       # number of overall hits
system.cpu1.icache.overall_misses::total         3906                       # number of overall misses
system.cpu1.icache.overall_accesses::total    116150682                       # number of overall (read+write) accesses
system.cpu1.icache.overall_miss_rate::total     0.000034                       # miss rate for overall accesses
system.cpu2.dcache.overall_hits::total          77773                       # number of overall hits
system.cpu2.dcache.overall_misses::total         3372                       # number of overall misses
system.cpu2.dcache.overall_accesses::total        81145                       # number of overall (read+write) accesses
system.cpu2.dcache.overall_miss_rate::total     0.041555                       # miss rate for overall accesses
system.cpu2.icache.overall_hits::total         217564                       # number of overall hits
system.cpu2.icache.overall_misses::total         1841                       # number of overall misses
system.cpu2.icache.overall_accesses::total       219405                       # number of overall (read+write) accesses
system.cpu2.icache.overall_miss_rate::total     0.008391                       # miss rate for overall accesses
system.cpu3.dcache.overall_hits::total          39155                       # number of overall hits
system.cpu3.dcache.overall_misses::total         1270                       # number of overall misses
system.cpu3.dcache.overall_accesses::total        40425                       # number of overall (read+write) accesses
system.cpu3.dcache.overall_miss_rate::total     0.031416                       # miss rate for overall accesses
system.cpu3.icache.overall_hits::total         100363                       # number of overall hits
system.cpu3.icache.overall_misses::total          376                       # number of overall misses
system.cpu3.icache.overall_accesses::total       100739                       # number of overall (read+write) accesses
system.cpu3.icache.overall_miss_rate::total     0.003732                       # miss rate for overall accesses
system.l2.overall_hits::total                 7095003                       # number of overall hits
system.l2.overall_misses::total               3599164                       # number of overall misses
system.l2.overall_accesses::total            10694167                       # number of overall (read+write) accesses
system.l2.overall_miss_rate::total           0.336554                       # miss rate for overall accesses
---------- End Simulation Statistics   ----------
