---------- Begin Simulation Statistics ----------
system.cpu0.dcache.overall_hits::total       22991411                       # number of overall hits
system.cpu0.dcache.overall_misses::total      2039003                       # number of overall misses
system.cpu0.dcache.overall_accesses::total     25030414                       # number of overall (read+write) accesses
system.cpu0.dcache.overall_miss_rate::total     0.081461                       # miss rate for overall accesses
system.cpu0.icache.overall_hits::total      283108598                       # number of overall hits
system.cpu0.icache.overall_misses::total       621361                       # number of overall misses
system.cpu0.icache.overall_accesses::total    283729959                       # number of overall (read+write) accesses
system.cpu0.icache.overall_miss_rate::total     0.002190                       # miss rate for overall accesses
system.cpu1.dcache.overall_hits::total        2643600                       # number of overall hits
system.cpu1.dcache.overall_misses::total       386089                       # number of overall misses
system.cpu1.dcache.overall_accesses::total      3029689                       # number of overall (read+write) accesses
system.cpu1.dcache.overall_miss_rate::total     0.127435                       # miss rate for overall accesses
system.cpu1.icache.overall_hits::total       13686117                       # number of overall hits
system.cpu1.icache.overall_misses::total        44613                       # number of overall misses
system.cpu1.icache.overall_accesses::total     13730730                       # number of overall (read+write) accesses
system.cpu1.icache.overall_miss_rate::total     0.003249                       # miss rate for overall accesses
system.cpu2.dcache.overall_hits::total        2182695                       # number of overall hits
system.cpu2.dcache.overall_misses::total        56969                       # number of overall misses
system.cpu2.dcache.overall_accesses::total      2239664                       # number of overall (read+write) accesses
system.cpu2.dcache.overall_miss_rate::total     0.025436                       # miss rate for overall accesses
system.cpu2.icache.overall_hits::total        8091908                       # number of overall hits
system.cpu2.icache.overall_misses::total        47929                       # number of overall misses
system.cpu2.icache.overall_accesses::total      8139837                       # number of overall (read+write) accesses
system.cpu2.icache.overall_miss_rate::total     0.005888                       # miss rate for overall accesses
system.cpu3.dcache.overall_hits::total        2316328                       # number of overall hits
system.cpu3.dcache.overall_misses::total        63996                       # number of overall misses
system.cpu3.dcache.overall_accesses::total      2380324                       # number of overall (read+write) accesses
system.cpu3.dcache.overall_miss_rate::total     0.026885                       # miss rate for overall accesses
system.cpu3.icache.overall_hits::total        7818470                       # number of overall hits
system.cpu3.icache.overall_misses::total        44974                       # number of overall misses
system.cpu3.icache.overall_accesses::total      7863444                       # number of overall (read+write) accesses
system.cpu3.icache.overall_miss_rate::total     0.005719                       # miss rate for overall accesses
system.l2.overall_hits::total                 2354387                       # number of overall hits
system.l2.overall_misses::total                576690                       # number of overall misses
system.l2.overall_accesses::total             2931077                       # number of overall (read+write) accesses
system.l2.overall_miss_rate::total           0.196750                       # miss rate for overall accesses
---------- End Simulation Statistics   ----------
---------- Begin Simulation Statistics ----------
system.cpu0.dcache.overall_hits::total         115641                       # number of overall hits
system.cpu0.dcache.overall_misses::total         4421                       # number of overall misses
system.cpu0.dcache.overall_accesses::total       120062                       # number of overall (read+write) accesses
system.cpu0.dcache.overall_miss_rate::total     0.036823                       # miss rate for overall accesses
system.cpu0.icache.overall_hits::total         343700                       # number of overall hits
system.cpu0.icache.overall_misses::total         4835                       # number of overall misses
system.cpu0.icache.overall_accesses::total       348535                       # number of overall (read+write) accesses
system.cpu0.icache.overall_miss_rate::total     0.013872                       # miss rate for overall accesses
system.cpu1.dcache.overall_hits::total         167685                       # number of overall hits
system.cpu1.dcache.overall_misses::total         4084                       # number of overall misses
system.cpu1.dcache.overall_accesses::total       171769                       # number of overall (read+write) accesses
system.cpu1.dcache.overall_miss_rate::total     0.023776                       # miss rate for overall accesses
system.cpu1.icache.overall_hits::total         515055                       # number of overall hits
system.cpu1.icache.overall_misses::total         5222                       # number of overall misses
system.cpu1.icache.overall_accesses::total       520277                       # number of overall (read+write) accesses
system.cpu1.icache.overall_miss_rate::total     0.010037                       # miss rate for overall accesses
system.cpu2.dcache.overall_hits::total         165316                       # number of overall hits
system.cpu2.dcache.overall_misses::total         6410                       # number of overall misses
system.cpu2.dcache.overall_accesses::total       171726                       # number of overall (read+write) accesses
system.cpu2.dcache.overall_miss_rate::total     0.037327                       # miss rate for overall accesses
system.cpu2.icache.overall_hits::total         464676                       # number of overall hits
system.cpu2.icache.overall_misses::total         6509                       # number of overall misses
system.cpu2.icache.overall_accesses::total       471185                       # number of overall (read+write) accesses
system.cpu2.icache.overall_miss_rate::total     0.013814                       # miss rate for overall accesses
system.cpu3.dcache.overall_hits::total          90835                       # number of overall hits
system.cpu3.dcache.overall_misses::total         2465                       # number of overall misses
system.cpu3.dcache.overall_accesses::total        93300                       # number of overall (read+write) accesses
system.cpu3.dcache.overall_miss_rate::total     0.026420                       # miss rate for overall accesses
system.cpu3.icache.overall_hits::total         259628                       # number of overall hits
system.cpu3.icache.overall_misses::total         2677                       # number of overall misses
system.cpu3.icache.overall_accesses::total       262305                       # number of overall (read+write) accesses
system.cpu3.icache.overall_miss_rate::total     0.010206                       # miss rate for overall accesses
system.l2.overall_hits::total                   27703                       # number of overall hits
system.l2.overall_misses::total                  1665                       # number of overall misses
system.l2.overall_accesses::total               29368                       # number of overall (read+write) accesses
system.l2.overall_miss_rate::total           0.056694                       # miss rate for overall accesses
---------- End Simulation Statistics   ----------
---------- Begin Simulation Statistics ----------
system.cpu0.dcache.overall_hits::total      163158295                       # number of overall hits
system.cpu0.dcache.overall_misses::total       751314                       # number of overall misses
system.cpu0.dcache.overall_accesses::total    163909609                       # number of overall (read+write) accesses
system.cpu0.dcache.overall_miss_rate::total     0.004584                       # miss rate for overall accesses
system.cpu0.icache.overall_hits::total      636674471                       # number of overall hits
system.cpu0.icache.overall_misses::total       187643                       # number of overall misses
system.cpu0.icache.overall_accesses::total    636862114                       # number of overall (read+write) accesses
system.cpu0.icache.overall_miss_rate::total     0.000295                       # miss rate for overall accesses
system.cpu1.dcache.overall_hits::total      163310843                       # number of overall hits
system.cpu1.dcache.overall_misses::total       723009                       # number of overall misses
system.cpu1.dcache.overall_accesses::total    164033852                       # number of overall (read+write) accesses
system.cpu1.dcache.overall_miss_rate::total     0.004408                       # miss rate for overall accesses
system.cpu1.icache.overall_hits::total      636999236                       # number of overall hits
system.cpu1.icache.overall_misses::total       186972                       # number of overall misses
system.cpu1.icache.overall_accesses::total    637186208                       # number of overall (read+write) accesses
system.cpu1.icache.overall_miss_rate::total     0.000293                       # miss rate for overall accesses
system.cpu2.dcache.overall_hits::total      151002564                       # number of overall hits
system.cpu2.dcache.overall_misses::total       755888                       # number of overall misses
system.cpu2.dcache.overall_accesses::total    151758452                       # number of overall (read+write) accesses
system.cpu2.dcache.overall_miss_rate::total     0.004981                       # miss rate for overall accesses
system.cpu2.icache.overall_hits::total      589384897                       # number of overall hits
system.cpu2.icache.overall_misses::total       166319                       # number of overall misses
system.cpu2.icache.overall_accesses::total    589551216                       # number of overall (read+write) accesses
system.cpu2.icache.overall_miss_rate::total     0.000282                       # miss rate for overall accesses
system.cpu3.dcache.overall_hits::total      163348680                       # number of overall hits
system.cpu3.dcache.overall_misses::total       698095                       # number of overall misses
system.cpu3.dcache.overall_accesses::total    164046775                       # number of overall (read+write) accesses
system.cpu3.dcache.overall_miss_rate::total     0.004255                       # miss rate for overall accesses
system.cpu3.icache.overall_hits::total      637259003                       # number of overall hits
system.cpu3.icache.overall_misses::total       176395                       # number of overall misses
system.cpu3.icache.overall_accesses::total    637435398                       # number of overall (read+write) accesses
system.cpu3.icache.overall_miss_rate::total     0.000277                       # miss rate for overall accesses
system.l2.overall_hits::total                 3438287                       # number of overall hits
system.l2.overall_misses::total                 25156                       # number of overall misses
system.l2.overall_accesses::total             3463443                       # number of overall (read+write) accesses
system.l2.overall_miss_rate::total           0.007263                       # miss rate for overall accesses
---------- End Simulation Statistics   ----------
