---------- Begin Simulation Statistics ----------
system.cpu0.dcache.overall_hits::total       23019513                       # number of overall hits
system.cpu0.dcache.overall_misses::total      2010901                       # number of overall misses
system.cpu0.dcache.overall_accesses::total     25030414                       # number of overall (read+write) accesses
system.cpu0.dcache.overall_miss_rate::total     0.080338                       # miss rate for overall accesses
system.cpu0.icache.overall_hits::total      283107669                       # number of overall hits
system.cpu0.icache.overall_misses::total       622290                       # number of overall misses
system.cpu0.icache.overall_accesses::total    283729959                       # number of overall (read+write) accesses
system.cpu0.icache.overall_miss_rate::total     0.002193                       # miss rate for overall accesses
system.cpu1.dcache.overall_hits::total        2643667                       # number of overall hits
system.cpu1.dcache.overall_misses::total       386024                       # number of overall misses
system.cpu1.dcache.overall_accesses::total      3029691                       # number of overall (read+write) accesses
system.cpu1.dcache.overall_miss_rate::total     0.127414                       # miss rate for overall accesses
system.cpu1.icache.overall_hits::total       13686139                       # number of overall hits
system.cpu1.icache.overall_misses::total        44599                       # number of overall misses
system.cpu1.icache.overall_accesses::total     13730738                       # number of overall (read+write) accesses
system.cpu1.icache.overall_miss_rate::total     0.003248                       # miss rate for overall accesses
system.cpu2.dcache.overall_hits::total        2182562                       # number of overall hits
system.cpu2.dcache.overall_misses::total        57102                       # number of overall misses
system.cpu2.dcache.overall_accesses::total      2239664                       # number of overall (read+write) accesses
system.cpu2.dcache.overall_miss_rate::total     0.025496                       # miss rate for overall accesses
system.cpu2.icache.overall_hits::total        8091889                       # number of overall hits
system.cpu2.icache.overall_misses::total        47948                       # number of overall misses
system.cpu2.icache.overall_accesses::total      8139837                       # number of overall (read+write) accesses
system.cpu2.icache.overall_miss_rate::total     0.005891                       # miss rate for overall accesses
system.cpu3.dcache.overall_hits::total        2316109                       # number of overall hits
system.cpu3.dcache.overall_misses::total        64217                       # number of overall misses
system.cpu3.dcache.overall_accesses::total      2380326                       # number of overall (read+write) accesses
system.cpu3.dcache.overall_miss_rate::total     0.026978                       # miss rate for overall accesses
system.cpu3.icache.overall_hits::total        7818493                       # number of overall hits
system.cpu3.icache.overall_misses::total        44959                       # number of overall misses
system.cpu3.icache.overall_accesses::total      7863452                       # number of overall (read+write) accesses
system.cpu3.icache.overall_miss_rate::total     0.005717                       # miss rate for overall accesses
system.l2.overall_hits::total                 2287555                       # number of overall hits
system.l2.overall_misses::total                608037                       # number of overall misses
system.l2.overall_accesses::total             2895592                       # number of overall (read+write) accesses
system.l2.overall_miss_rate::total           0.209987                       # miss rate for overall accesses
---------- End Simulation Statistics   ----------
---------- Begin Simulation Statistics ----------
system.cpu0.dcache.overall_hits::total        6593669                       # number of overall hits
system.cpu0.dcache.overall_misses::total       352222                       # number of overall misses
system.cpu0.dcache.overall_accesses::total      6945891                       # number of overall (read+write) accesses
system.cpu0.dcache.overall_miss_rate::total     0.050709                       # miss rate for overall accesses
system.cpu0.icache.overall_hits::total       16428058                       # number of overall hits
system.cpu0.icache.overall_misses::total        45204                       # number of overall misses
system.cpu0.icache.overall_accesses::total     16473262                       # number of overall (read+write) accesses
system.cpu0.icache.overall_miss_rate::total     0.002744                       # miss rate for overall accesses
system.cpu1.dcache.overall_hits::total       18665333                       # number of overall hits
system.cpu1.dcache.overall_misses::total       654516                       # number of overall misses
system.cpu1.dcache.overall_accesses::total     19319849                       # number of overall (read+write) accesses
system.cpu1.dcache.overall_miss_rate::total     0.033878                       # miss rate for overall accesses
system.cpu1.icache.overall_hits::total       48239105                       # number of overall hits
system.cpu1.icache.overall_misses::total       151553                       # number of overall misses
system.cpu1.icache.overall_accesses::total     48390658                       # number of overall (read+write) accesses
system.cpu1.icache.overall_miss_rate::total     0.003132                       # miss rate for overall accesses
system.cpu2.dcache.overall_hits::total        7473876                       # number of overall hits
system.cpu2.dcache.overall_misses::total       283709                       # number of overall misses
system.cpu2.dcache.overall_accesses::total      7757585                       # number of overall (read+write) accesses
system.cpu2.dcache.overall_miss_rate::total     0.036572                       # miss rate for overall accesses
system.cpu2.icache.overall_hits::total       19249173                       # number of overall hits
system.cpu2.icache.overall_misses::total        67485                       # number of overall misses
system.cpu2.icache.overall_accesses::total     19316658                       # number of overall (read+write) accesses
system.cpu2.icache.overall_miss_rate::total     0.003494                       # miss rate for overall accesses
system.cpu3.dcache.overall_hits::total       36300647                       # number of overall hits
system.cpu3.dcache.overall_misses::total       969735                       # number of overall misses
system.cpu3.dcache.overall_accesses::total     37270382                       # number of overall (read+write) accesses
system.cpu3.dcache.overall_miss_rate::total     0.026019                       # miss rate for overall accesses
system.cpu3.icache.overall_hits::total      129970173                       # number of overall hits
system.cpu3.icache.overall_misses::total       113123                       # number of overall misses
system.cpu3.icache.overall_accesses::total    130083296                       # number of overall (read+write) accesses
system.cpu3.icache.overall_miss_rate::total     0.000870                       # miss rate for overall accesses
system.l2.overall_hits::total                 1150626                       # number of overall hits
system.l2.overall_misses::total               1789149                       # number of overall misses
system.l2.overall_accesses::total             2939775                       # number of overall (read+write) accesses
system.l2.overall_miss_rate::total           0.608601                       # miss rate for overall accesses
---------- End Simulation Statistics   ----------
---------- Begin Simulation Statistics ----------
system.cpu0.dcache.overall_hits::total         107412                       # number of overall hits
system.cpu0.dcache.overall_misses::total         3317                       # number of overall misses
system.cpu0.dcache.overall_accesses::total       110729                       # number of overall (read+write) accesses
system.cpu0.dcache.overall_miss_rate::total     0.029956                       # miss rate for overall accesses
system.cpu0.icache.overall_hits::total         318690                       # number of overall hits
system.cpu0.icache.overall_misses::total         3768                       # number of overall misses
system.cpu0.icache.overall_accesses::total       322458                       # number of overall (read+write) accesses
system.cpu0.icache.overall_miss_rate::total     0.011685                       # miss rate for overall accesses
system.cpu1.dcache.overall_hits::total        4470994                       # number of overall hits
system.cpu1.dcache.overall_misses::total       161683                       # number of overall misses
system.cpu1.dcache.overall_accesses::total      4632677                       # number of overall (read+write) accesses
system.cpu1.dcache.overall_miss_rate::total     0.034901                       # miss rate for overall accesses
system.cpu1.icache.overall_hits::total       15553686                       # number of overall hits
system.cpu1.icache.overall_misses::total        68991                       # number of overall misses
system.cpu1.icache.overall_accesses::total     15622677                       # number of overall (read+write) accesses
system.cpu1.icache.overall_miss_rate::total     0.004416                       # miss rate for overall accesses
system.cpu2.dcache.overall_hits::total         143835                       # number of overall hits
system.cpu2.dcache.overall_misses::total         5897                       # number of overall misses
system.cpu2.dcache.overall_accesses::total       149732                       # number of overall (read+write) accesses
system.cpu2.dcache.overall_miss_rate::total     0.039384                       # miss rate for overall accesses
system.cpu2.icache.overall_hits::total         428908                       # number of overall hits
system.cpu2.icache.overall_misses::total         6023                       # number of overall misses
system.cpu2.icache.overall_accesses::total       434931                       # number of overall (read+write) accesses
system.cpu2.icache.overall_miss_rate::total     0.013848                       # miss rate for overall accesses
system.cpu3.dcache.overall_hits::total        1672228                       # number of overall hits
system.cpu3.dcache.overall_misses::total        26767                       # number of overall misses
system.cpu3.dcache.overall_accesses::total      1698995                       # number of overall (read+write) accesses
system.cpu3.dcache.overall_miss_rate::total     0.015755                       # miss rate for overall accesses
system.cpu3.icache.overall_hits::total        5544090                       # number of overall hits
system.cpu3.icache.overall_misses::total        15264                       # number of overall misses
system.cpu3.icache.overall_accesses::total      5559354                       # number of overall (read+write) accesses
system.cpu3.icache.overall_miss_rate::total     0.002746                       # miss rate for overall accesses
system.l2.overall_hits::total                  168666                       # number of overall hits
system.l2.overall_misses::total                136964                       # number of overall misses
system.l2.overall_accesses::total              305630                       # number of overall (read+write) accesses
system.l2.overall_miss_rate::total           0.448137                       # miss rate for overall accesses
---------- End Simulation Statistics   ----------
