---------- Begin Simulation Statistics ----------
system.cpu0.dcache.overall_hits::total       23019230                       # number of overall hits
system.cpu0.dcache.overall_misses::total      2010907                       # number of overall misses
system.cpu0.dcache.overall_accesses::total     25030137                       # number of overall (read+write) accesses
system.cpu0.dcache.overall_miss_rate::total     0.080339                       # miss rate for overall accesses
system.cpu0.icache.overall_hits::total      283106969                       # number of overall hits
system.cpu0.icache.overall_misses::total       622275                       # number of overall misses
system.cpu0.icache.overall_accesses::total    283729244                       # number of overall (read+write) accesses
system.cpu0.icache.overall_miss_rate::total     0.002193                       # miss rate for overall accesses
system.cpu1.dcache.overall_hits::total        2643784                       # number of overall hits
system.cpu1.dcache.overall_misses::total       386025                       # number of overall misses
system.cpu1.dcache.overall_accesses::total      3029809                       # number of overall (read+write) accesses
system.cpu1.dcache.overall_miss_rate::total     0.127409                       # miss rate for overall accesses
system.cpu1.icache.overall_hits::total       13686883                       # number of overall hits
system.cpu1.icache.overall_misses::total        44598                       # number of overall misses
system.cpu1.icache.overall_accesses::total     13731481                       # number of overall (read+write) accesses
system.cpu1.icache.overall_miss_rate::total     0.003248                       # miss rate for overall accesses
system.cpu2.dcache.overall_hits::total        2182562                       # number of overall hits
system.cpu2.dcache.overall_misses::total        57102                       # number of overall misses
system.cpu2.dcache.overall_accesses::total      2239664                       # number of overall (read+write) accesses
system.cpu2.dcache.overall_miss_rate::total     0.025496                       # miss rate for overall accesses
system.cpu2.icache.overall_hits::total        8091889                       # number of overall hits
system.cpu2.icache.overall_misses::total        47948                       # number of overall misses
system.cpu2.icache.overall_accesses::total      8139837                       # number of overall (read+write) accesses
system.cpu2.icache.overall_miss_rate::total     0.005891                       # miss rate for overall accesses
system.cpu3.dcache.overall_hits::total        2320231                       # number of overall hits
system.cpu3.dcache.overall_misses::total        64220                       # number of overall misses
system.cpu3.dcache.overall_accesses::total      2384451                       # number of overall (read+write) accesses
system.cpu3.dcache.overall_miss_rate::total     0.026933                       # miss rate for overall accesses
system.cpu3.icache.overall_hits::total        7830544                       # number of overall hits
system.cpu3.icache.overall_misses::total        45113                       # number of overall misses
system.cpu3.icache.overall_accesses::total      7875657                       # number of overall (read+write) accesses
system.cpu3.icache.overall_miss_rate::total     0.005728                       # miss rate for overall accesses
system.l2.overall_hits::total                 2287734                       # number of overall hits
system.l2.overall_misses::total                608041                       # number of overall misses
system.l2.overall_accesses::total             2895775                       # number of overall (read+write) accesses
system.l2.overall_miss_rate::total           0.209975                       # miss rate for overall accesses
---------- End Simulation Statistics   ----------
---------- Begin Simulation Statistics ----------
system.cpu0.dcache.overall_hits::total         237042                       # number of overall hits
system.cpu0.dcache.overall_misses::total        11511                       # number of overall misses
system.cpu0.dcache.overall_accesses::total       248553                       # number of overall (read+write) accesses
system.cpu0.dcache.overall_miss_rate::total     0.046312                       # miss rate for overall accesses
system.cpu0.icache.overall_hits::total         710857                       # number of overall hits
system.cpu0.icache.overall_misses::total        12120                       # number of overall misses
system.cpu0.icache.overall_accesses::total       722977                       # number of overall (read+write) accesses
system.cpu0.icache.overall_miss_rate::total     0.016764                       # miss rate for overall accesses
system.cpu1.dcache.overall_hits::total         159094                       # number of overall hits
system.cpu1.dcache.overall_misses::total         8813                       # number of overall misses
system.cpu1.dcache.overall_accesses::total       167907                       # number of overall (read+write) accesses
system.cpu1.dcache.overall_miss_rate::total     0.052487                       # miss rate for overall accesses
system.cpu1.icache.overall_hits::total         475685                       # number of overall hits
system.cpu1.icache.overall_misses::total        10298                       # number of overall misses
system.cpu1.icache.overall_accesses::total       485983                       # number of overall (read+write) accesses
system.cpu1.icache.overall_miss_rate::total     0.021190                       # miss rate for overall accesses
system.cpu2.dcache.overall_hits::total         223769                       # number of overall hits
system.cpu2.dcache.overall_misses::total         9166                       # number of overall misses
system.cpu2.dcache.overall_accesses::total       232935                       # number of overall (read+write) accesses
system.cpu2.dcache.overall_miss_rate::total     0.039350                       # miss rate for overall accesses
system.cpu2.icache.overall_hits::total         655987                       # number of overall hits
system.cpu2.icache.overall_misses::total        14027                       # number of overall misses
system.cpu2.icache.overall_accesses::total       670014                       # number of overall (read+write) accesses
system.cpu2.icache.overall_miss_rate::total     0.020935                       # miss rate for overall accesses
system.cpu3.dcache.overall_hits::total         103533                       # number of overall hits
system.cpu3.dcache.overall_misses::total         4063                       # number of overall misses
system.cpu3.dcache.overall_accesses::total       107596                       # number of overall (read+write) accesses
system.cpu3.dcache.overall_miss_rate::total     0.037762                       # miss rate for overall accesses
system.cpu3.icache.overall_hits::total         298600                       # number of overall hits
system.cpu3.icache.overall_misses::total         4376                       # number of overall misses
system.cpu3.icache.overall_accesses::total       302976                       # number of overall (read+write) accesses
system.cpu3.icache.overall_miss_rate::total     0.014443                       # miss rate for overall accesses
system.l2.overall_hits::total                   53028                       # number of overall hits
system.l2.overall_misses::total                  6644                       # number of overall misses
system.l2.overall_accesses::total               59672                       # number of overall (read+write) accesses
system.l2.overall_miss_rate::total           0.111342                       # miss rate for overall accesses
---------- End Simulation Statistics   ----------
