---------- Begin Simulation Statistics ----------
system.cpu0.dcache.overall_hits::total       23018213                       # number of overall hits
system.cpu0.dcache.overall_misses::total      2012201                       # number of overall misses
system.cpu0.dcache.overall_accesses::total     25030414                       # number of overall (read+write) accesses
system.cpu0.dcache.overall_miss_rate::total     0.080390                       # miss rate for overall accesses
system.cpu0.icache.overall_hits::total      283107639                       # number of overall hits
system.cpu0.icache.overall_misses::total       622320                       # number of overall misses
system.cpu0.icache.overall_accesses::total    283729959                       # number of overall (read+write) accesses
system.cpu0.icache.overall_miss_rate::total     0.002193                       # miss rate for overall accesses
system.cpu1.dcache.overall_hits::total        2643605                       # number of overall hits
system.cpu1.dcache.overall_misses::total       386084                       # number of overall misses
system.cpu1.dcache.overall_accesses::total      3029689                       # number of overall (read+write) accesses
system.cpu1.dcache.overall_miss_rate::total     0.127434                       # miss rate for overall accesses
system.cpu1.icache.overall_hits::total       13686129                       # number of overall hits
system.cpu1.icache.overall_misses::total        44601                       # number of overall misses
system.cpu1.icache.overall_accesses::total     13730730                       # number of overall (read+write) accesses
system.cpu1.icache.overall_miss_rate::total     0.003248                       # miss rate for overall accesses
system.cpu2.dcache.overall_hits::total        2182506                       # number of overall hits
system.cpu2.dcache.overall_misses::total        57158                       # number of overall misses
system.cpu2.dcache.overall_accesses::total      2239664                       # number of overall (read+write) accesses
system.cpu2.dcache.overall_miss_rate::total     0.025521                       # miss rate for overall accesses
system.cpu2.icache.overall_hits::total        8091886                       # number of overall hits
system.cpu2.icache.overall_misses::total        47951                       # number of overall misses
system.cpu2.icache.overall_accesses::total      8139837                       # number of overall (read+write) accesses
system.cpu2.icache.overall_miss_rate::total     0.005891                       # miss rate for overall accesses
system.cpu3.dcache.overall_hits::total        2315901                       # number of overall hits
system.cpu3.dcache.overall_misses::total        64407                       # number of overall misses
system.cpu3.dcache.overall_accesses::total      2380308                       # number of overall (read+write) accesses
system.cpu3.dcache.overall_miss_rate::total     0.027058                       # miss rate for overall accesses
system.cpu3.icache.overall_hits::total        7818450                       # number of overall hits
system.cpu3.icache.overall_misses::total        44964                       # number of overall misses
system.cpu3.icache.overall_accesses::total      7863414                       # number of overall (read+write) accesses
system.cpu3.icache.overall_miss_rate::total     0.005718                       # miss rate for overall accesses
system.l2.overall_hits::total                 2291747                       # number of overall hits
system.l2.overall_misses::total                616592                       # number of overall misses
system.l2.overall_accesses::total             2908339                       # number of overall (read+write) accesses
system.l2.overall_miss_rate::total           0.212008                       # miss rate for overall accesses
---------- End Simulation Statistics   ----------
---------- Begin Simulation Statistics ----------
system.cpu0.dcache.overall_hits::total      203285505                       # number of overall hits
system.cpu0.dcache.overall_misses::total     10518271                       # number of overall misses
system.cpu0.dcache.overall_accesses::total    213803776                       # number of overall (read+write) accesses
system.cpu0.dcache.overall_miss_rate::total     0.049196                       # miss rate for overall accesses
system.cpu0.icache.overall_hits::total      666950602                       # number of overall hits
system.cpu0.icache.overall_misses::total      1137157                       # number of overall misses
system.cpu0.icache.overall_accesses::total    668087759                       # number of overall (read+write) accesses
system.cpu0.icache.overall_miss_rate::total     0.001702                       # miss rate for overall accesses
system.cpu1.dcache.overall_hits::total      632125346                       # number of overall hits
system.cpu1.dcache.overall_misses::total     21368223                       # number of overall misses
system.cpu1.dcache.overall_accesses::total    653493569                       # number of overall (read+write) accesses
system.cpu1.dcache.overall_miss_rate::total     0.032698                       # miss rate for overall accesses
system.cpu1.icache.overall_hits::total     2095716029                       # number of overall hits
system.cpu1.icache.overall_misses::total      7079635                       # number of overall misses
system.cpu1.icache.overall_accesses::total   2102795664                       # number of overall (read+write) accesses
system.cpu1.icache.overall_miss_rate::total     0.003367                       # miss rate for overall accesses
system.cpu2.dcache.overall_hits::total       54344860                       # number of overall hits
system.cpu2.dcache.overall_misses::total      1396664                       # number of overall misses
system.cpu2.dcache.overall_accesses::total     55741524                       # number of overall (read+write) accesses
system.cpu2.dcache.overall_miss_rate::total     0.025056                       # miss rate for overall accesses
system.cpu2.icache.overall_hits::total      165296595                       # number of overall hits
system.cpu2.icache.overall_misses::total        75126                       # number of overall misses
system.cpu2.icache.overall_accesses::total    165371721                       # number of overall (read+write) accesses
system.cpu2.icache.overall_miss_rate::total     0.000454                       # miss rate for overall accesses
system.cpu3.dcache.overall_hits::total      981645780                       # number of overall hits
system.cpu3.dcache.overall_misses::total     47440532                       # number of overall misses
system.cpu3.dcache.overall_accesses::total   1029086312                       # number of overall (read+write) accesses
system.cpu3.dcache.overall_miss_rate::total     0.046100                       # miss rate for overall accesses
system.cpu3.icache.overall_hits::total     3238814511                       # number of overall hits
system.cpu3.icache.overall_misses::total      6581729                       # number of overall misses
system.cpu3.icache.overall_accesses::total   3245396240                       # number of overall (read+write) accesses
system.cpu3.icache.overall_miss_rate::total     0.002028                       # miss rate for overall accesses
system.l2.overall_hits::total               177858787                       # number of overall hits
system.l2.overall_misses::total              43262813                       # number of overall misses
system.l2.overall_accesses::total           221121600                       # number of overall (read+write) accesses
system.l2.overall_miss_rate::total           0.195652                       # miss rate for overall accesses
---------- End Simulation Statistics   ----------
---------- Begin Simulation Statistics ----------
system.cpu0.dcache.overall_hits::total      132980495                       # number of overall hits
system.cpu0.dcache.overall_misses::total      9789805                       # number of overall misses
system.cpu0.dcache.overall_accesses::total    142770300                       # number of overall (read+write) accesses
system.cpu0.dcache.overall_miss_rate::total     0.068570                       # miss rate for overall accesses
system.cpu0.icache.overall_hits::total      561905762                       # number of overall hits
system.cpu0.icache.overall_misses::total       113551                       # number of overall misses
system.cpu0.icache.overall_accesses::total    562019313                       # number of overall (read+write) accesses
system.cpu0.icache.overall_miss_rate::total     0.000202                       # miss rate for overall accesses
system.cpu1.dcache.overall_hits::total      131661888                       # number of overall hits
system.cpu1.dcache.overall_misses::total      9705812                       # number of overall misses
system.cpu1.dcache.overall_accesses::total    141367700                       # number of overall (read+write) accesses
system.cpu1.dcache.overall_miss_rate::total     0.068657                       # miss rate for overall accesses
system.cpu1.icache.overall_hits::total      556810883                       # number of overall hits
system.cpu1.icache.overall_misses::total       107649                       # number of overall misses
system.cpu1.icache.overall_accesses::total    556918532                       # number of overall (read+write) accesses
system.cpu1.icache.overall_miss_rate::total     0.000193                       # miss rate for overall accesses
system.cpu2.dcache.overall_hits::total      131935983                       # number of overall hits
system.cpu2.dcache.overall_misses::total      9726799                       # number of overall misses
system.cpu2.dcache.overall_accesses::total    141662782                       # number of overall (read+write) accesses
system.cpu2.dcache.overall_miss_rate::total     0.068662                       # miss rate for overall accesses
system.cpu2.icache.overall_hits::total      557723849                       # number of overall hits
system.cpu2.icache.overall_misses::total       112579                       # number of overall misses
system.cpu2.icache.overall_accesses::total    557836428                       # number of overall (read+write) accesses
system.cpu2.icache.overall_miss_rate::total     0.000202                       # miss rate for overall accesses
system.cpu3.dcache.overall_hits::total      137004875                       # number of overall hits
system.cpu3.dcache.overall_misses::total     10098504                       # number of overall misses
system.cpu3.dcache.overall_accesses::total    147103379                       # number of overall (read+write) accesses
system.cpu3.dcache.overall_miss_rate::total     0.068649                       # miss rate for overall accesses
system.cpu3.icache.overall_hits::total      579512479                       # number of overall hits
system.cpu3.icache.overall_misses::total       114597                       # number of overall misses
system.cpu3.icache.overall_accesses::total    579627076                       # number of overall (read+write) accesses
system.cpu3.icache.overall_miss_rate::total     0.000198                       # miss rate for overall accesses
system.l2.overall_hits::total                87350955                       # number of overall hits
system.l2.overall_misses::total              36944747                       # number of overall misses
system.l2.overall_accesses::total           124295702                       # number of overall (read+write) accesses
system.l2.overall_miss_rate::total           0.297233                       # miss rate for overall accesses
---------- End Simulation Statistics   ----------
---------- Begin Simulation Statistics ----------
system.cpu0.dcache.overall_hits::total         104110                       # number of overall hits
system.cpu0.dcache.overall_misses::total         2442                       # number of overall misses
system.cpu0.dcache.overall_accesses::total       106552                       # number of overall (read+write) accesses
system.cpu0.dcache.overall_miss_rate::total     0.022918                       # miss rate for overall accesses
system.cpu0.icache.overall_hits::total         261382                       # number of overall hits
system.cpu0.icache.overall_misses::total         1072                       # number of overall misses
system.cpu0.icache.overall_accesses::total       262454                       # number of overall (read+write) accesses
system.cpu0.icache.overall_miss_rate::total     0.004085                       # miss rate for overall accesses
system.cpu1.dcache.overall_hits::total      120392032                       # number of overall hits
system.cpu1.dcache.overall_misses::total     18251870                       # number of overall misses
system.cpu1.dcache.overall_accesses::total    138643902                       # number of overall (read+write) accesses
system.cpu1.dcache.overall_miss_rate::total     0.131646                       # miss rate for overall accesses
system.cpu1.icache.overall_hits::total      460893172                       # number of overall hits
system.cpu1.icache.overall_misses::total         4317                       # number of overall misses
system.cpu1.icache.overall_accesses::total    460897489                       # number of overall (read+write) accesses
system.cpu1.icache.overall_miss_rate::total     0.000009                       # miss rate for overall accesses
system.cpu2.dcache.overall_hits::total         146249                       # number of overall hits
system.cpu2.dcache.overall_misses::total         4767                       # number of overall misses
system.cpu2.dcache.overall_accesses::total       151016                       # number of overall (read+write) accesses
system.cpu2.dcache.overall_miss_rate::total     0.031566                       # miss rate for overall accesses
system.cpu2.icache.overall_hits::total         387522                       # number of overall hits
system.cpu2.icache.overall_misses::total         2698                       # number of overall misses
system.cpu2.icache.overall_accesses::total       390220                       # number of overall (read+write) accesses
system.cpu2.icache.overall_miss_rate::total     0.006914                       # miss rate for overall accesses
system.cpu3.dcache.overall_hits::total         104534                       # number of overall hits
system.cpu3.dcache.overall_misses::total         2443                       # number of overall misses
system.cpu3.dcache.overall_accesses::total       106977                       # number of overall (read+write) accesses
system.cpu3.dcache.overall_miss_rate::total     0.022837                       # miss rate for overall accesses
system.cpu3.icache.overall_hits::total         262362                       # number of overall hits
system.cpu3.icache.overall_misses::total         1090                       # number of overall misses
system.cpu3.icache.overall_accesses::total       263452                       # number of overall (read+write) accesses
system.cpu3.icache.overall_miss_rate::total     0.004137                       # miss rate for overall accesses
system.l2.overall_hits::total                33203464                       # number of overall hits
system.l2.overall_misses::total              18070445                       # number of overall misses
system.l2.overall_accesses::total            51273909                       # number of overall (read+write) accesses
system.l2.overall_miss_rate::total           0.352430                       # miss rate for overall accesses
---------- End Simulation Statistics   ----------
