---------- Begin Simulation Statistics ----------
system.cpu0.dcache.overall_hits::total       23017645                       # number of overall hits
system.cpu0.dcache.overall_misses::total      2012769                       # number of overall misses
system.cpu0.dcache.overall_accesses::total     25030414                       # number of overall (read+write) accesses
system.cpu0.dcache.overall_miss_rate::total     0.080413                       # miss rate for overall accesses
system.cpu0.icache.overall_hits::total      283107668                       # number of overall hits
system.cpu0.icache.overall_misses::total       622291                       # number of overall misses
system.cpu0.icache.overall_accesses::total    283729959                       # number of overall (read+write) accesses
system.cpu0.icache.overall_miss_rate::total     0.002193                       # miss rate for overall accesses
system.cpu1.dcache.overall_hits::total        2643432                       # number of overall hits
system.cpu1.dcache.overall_misses::total       386257                       # number of overall misses
system.cpu1.dcache.overall_accesses::total      3029689                       # number of overall (read+write) accesses
system.cpu1.dcache.overall_miss_rate::total     0.127491                       # miss rate for overall accesses
system.cpu1.icache.overall_hits::total       13686127                       # number of overall hits
system.cpu1.icache.overall_misses::total        44603                       # number of overall misses
system.cpu1.icache.overall_accesses::total     13730730                       # number of overall (read+write) accesses
system.cpu1.icache.overall_miss_rate::total     0.003248                       # miss rate for overall accesses
system.cpu2.dcache.overall_hits::total        2182582                       # number of overall hits
system.cpu2.dcache.overall_misses::total        57082                       # number of overall misses
system.cpu2.dcache.overall_accesses::total      2239664                       # number of overall (read+write) accesses
system.cpu2.dcache.overall_miss_rate::total     0.025487                       # miss rate for overall accesses
system.cpu2.icache.overall_hits::total        8091880                       # number of overall hits
system.cpu2.icache.overall_misses::total        47957                       # number of overall misses
system.cpu2.icache.overall_accesses::total      8139837                       # number of overall (read+write) accesses
system.cpu2.icache.overall_miss_rate::total     0.005892                       # miss rate for overall accesses
system.cpu3.dcache.overall_hits::total        2316155                       # number of overall hits
system.cpu3.dcache.overall_misses::total        64162                       # number of overall misses
system.cpu3.dcache.overall_accesses::total      2380317                       # number of overall (read+write) accesses
system.cpu3.dcache.overall_miss_rate::total     0.026955                       # miss rate for overall accesses
system.cpu3.icache.overall_hits::total        7818462                       # number of overall hits
system.cpu3.icache.overall_misses::total        44963                       # number of overall misses
system.cpu3.icache.overall_accesses::total      7863425                       # number of overall (read+write) accesses
system.cpu3.icache.overall_miss_rate::total     0.005718                       # miss rate for overall accesses
system.l2.overall_hits::total                 2297856                       # number of overall hits
system.l2.overall_misses::total                608749                       # number of overall misses
system.l2.overall_accesses::total             2906605                       # number of overall (read+write) accesses
system.l2.overall_miss_rate::total           0.209436                       # miss rate for overall accesses
---------- End Simulation Statistics   ----------
---------- Begin Simulation Statistics ----------
system.cpu0.dcache.overall_hits::total           6007                       # number of overall hits
system.cpu0.dcache.overall_misses::total          253                       # number of overall misses
system.cpu0.dcache.overall_accesses::total         6260                       # number of overall (read+write) accesses
system.cpu0.dcache.overall_miss_rate::total     0.040415                       # miss rate for overall accesses
system.cpu0.icache.overall_hits::total          14682                       # number of overall hits
system.cpu0.icache.overall_misses::total           70                       # number of overall misses
system.cpu0.icache.overall_accesses::total        14752                       # number of overall (read+write) accesses
system.cpu0.icache.overall_miss_rate::total     0.004745                       # miss rate for overall accesses
system.cpu1.dcache.overall_hits::total           6034                       # number of overall hits
system.cpu1.dcache.overall_misses::total          222                       # number of overall misses
system.cpu1.dcache.overall_accesses::total         6256                       # number of overall (read+write) accesses
system.cpu1.dcache.overall_miss_rate::total     0.035486                       # miss rate for overall accesses
system.cpu1.icache.overall_hits::total          14702                       # number of overall hits
system.cpu1.icache.overall_misses::total           70                       # number of overall misses
system.cpu1.icache.overall_accesses::total        14772                       # number of overall (read+write) accesses
system.cpu1.icache.overall_miss_rate::total     0.004739                       # miss rate for overall accesses
system.cpu2.dcache.overall_hits::total         132553                       # number of overall hits
system.cpu2.dcache.overall_misses::total         6794                       # number of overall misses
system.cpu2.dcache.overall_accesses::total       139347                       # number of overall (read+write) accesses
system.cpu2.dcache.overall_miss_rate::total     0.048756                       # miss rate for overall accesses
system.cpu2.icache.overall_hits::total         348557                       # number of overall hits
system.cpu2.icache.overall_misses::total         5147                       # number of overall misses
system.cpu2.icache.overall_accesses::total       353704                       # number of overall (read+write) accesses
system.cpu2.icache.overall_miss_rate::total     0.014552                       # miss rate for overall accesses
system.cpu3.dcache.overall_hits::total          44553                       # number of overall hits
system.cpu3.dcache.overall_misses::total         2314                       # number of overall misses
system.cpu3.dcache.overall_accesses::total        46867                       # number of overall (read+write) accesses
system.cpu3.dcache.overall_miss_rate::total     0.049374                       # miss rate for overall accesses
system.cpu3.icache.overall_hits::total         131603                       # number of overall hits
system.cpu3.icache.overall_misses::total         1548                       # number of overall misses
system.cpu3.icache.overall_accesses::total       133151                       # number of overall (read+write) accesses
system.cpu3.icache.overall_miss_rate::total     0.011626                       # miss rate for overall accesses
system.l2.overall_hits::total                   13016                       # number of overall hits
system.l2.overall_misses::total                  1867                       # number of overall misses
system.l2.overall_accesses::total               14883                       # number of overall (read+write) accesses
system.l2.overall_miss_rate::total           0.125445                       # miss rate for overall accesses
---------- End Simulation Statistics   ----------
