---------- Begin Simulation Statistics ----------
system.cpu0.dcache.overall_hits::total       23017646                       # number of overall hits
system.cpu0.dcache.overall_misses::total      2012768                       # number of overall misses
system.cpu0.dcache.overall_accesses::total     25030414                       # number of overall (read+write) accesses
system.cpu0.dcache.overall_miss_rate::total     0.080413                       # miss rate for overall accesses
system.cpu0.icache.overall_hits::total      283107668                       # number of overall hits
system.cpu0.icache.overall_misses::total       622291                       # number of overall misses
system.cpu0.icache.overall_accesses::total    283729959                       # number of overall (read+write) accesses
system.cpu0.icache.overall_miss_rate::total     0.002193                       # miss rate for overall accesses
system.cpu1.dcache.overall_hits::total        2643432                       # number of overall hits
system.cpu1.dcache.overall_misses::total       386257                       # number of overall misses
system.cpu1.dcache.overall_accesses::total      3029689                       # number of overall (read+write) accesses
system.cpu1.dcache.overall_miss_rate::total     0.127491                       # miss rate for overall accesses
system.cpu1.icache.overall_hits::total       13686127                       # number of overall hits
system.cpu1.icache.overall_misses::total        44603                       # number of overall misses
system.cpu1.icache.overall_accesses::total     13730730                       # number of overall (read+write) accesses
system.cpu1.icache.overall_miss_rate::total     0.003248                       # miss rate for overall accesses
system.cpu2.dcache.overall_hits::total        2182582                       # number of overall hits
system.cpu2.dcache.overall_misses::total        57082                       # number of overall misses
system.cpu2.dcache.overall_accesses::total      2239664                       # number of overall (read+write) accesses
system.cpu2.dcache.overall_miss_rate::total     0.025487                       # miss rate for overall accesses
system.cpu2.icache.overall_hits::total        8091880                       # number of overall hits
system.cpu2.icache.overall_misses::total        47957                       # number of overall misses
system.cpu2.icache.overall_accesses::total      8139837                       # number of overall (read+write) accesses
system.cpu2.icache.overall_miss_rate::total     0.005892                       # miss rate for overall accesses
system.cpu3.dcache.overall_hits::total        2316242                       # number of overall hits
system.cpu3.dcache.overall_misses::total        64166                       # number of overall misses
system.cpu3.dcache.overall_accesses::total      2380408                       # number of overall (read+write) accesses
system.cpu3.dcache.overall_miss_rate::total     0.026956                       # miss rate for overall accesses
system.cpu3.icache.overall_hits::total        7818683                       # number of overall hits
system.cpu3.icache.overall_misses::total        44963                       # number of overall misses
system.cpu3.icache.overall_accesses::total      7863646                       # number of overall (read+write) accesses
system.cpu3.icache.overall_miss_rate::total     0.005718                       # miss rate for overall accesses
system.l2.overall_hits::total                 2297850                       # number of overall hits
system.l2.overall_misses::total                608761                       # number of overall misses
system.l2.overall_accesses::total             2906611                       # number of overall (read+write) accesses
system.l2.overall_miss_rate::total           0.209440                       # miss rate for overall accesses
---------- End Simulation Statistics   ----------
---------- Begin Simulation Statistics ----------
system.cpu0.dcache.overall_hits::total         952326                       # number of overall hits
system.cpu0.dcache.overall_misses::total         8285                       # number of overall misses
system.cpu0.dcache.overall_accesses::total       960611                       # number of overall (read+write) accesses
system.cpu0.dcache.overall_miss_rate::total     0.008625                       # miss rate for overall accesses
system.cpu0.icache.overall_hits::total        3646581                       # number of overall hits
system.cpu0.icache.overall_misses::total         8043                       # number of overall misses
system.cpu0.icache.overall_accesses::total      3654624                       # number of overall (read+write) accesses
system.cpu0.icache.overall_miss_rate::total     0.002201                       # miss rate for overall accesses
system.cpu1.dcache.overall_hits::total         246887                       # number of overall hits
system.cpu1.dcache.overall_misses::total         7347                       # number of overall misses
system.cpu1.dcache.overall_accesses::total       254234                       # number of overall (read+write) accesses
system.cpu1.dcache.overall_miss_rate::total     0.028899                       # miss rate for overall accesses
system.cpu1.icache.overall_hits::total         658345                       # number of overall hits
system.cpu1.icache.overall_misses::total         6437                       # number of overall misses
system.cpu1.icache.overall_accesses::total       664782                       # number of overall (read+write) accesses
system.cpu1.icache.overall_miss_rate::total     0.009683                       # miss rate for overall accesses
system.cpu2.dcache.overall_hits::total      179385829                       # number of overall hits
system.cpu2.dcache.overall_misses::total       207976                       # number of overall misses
system.cpu2.dcache.overall_accesses::total    179593805                       # number of overall (read+write) accesses
system.cpu2.dcache.overall_miss_rate::total     0.001158                       # miss rate for overall accesses
system.cpu2.icache.overall_hits::total      756478623                       # number of overall hits
system.cpu2.icache.overall_misses::total       440347                       # number of overall misses
system.cpu2.icache.overall_accesses::total    756918970                       # number of overall (read+write) accesses
system.cpu2.icache.overall_miss_rate::total     0.000582                       # miss rate for overall accesses
system.cpu3.dcache.overall_hits::total         251574                       # number of overall hits
system.cpu3.dcache.overall_misses::total         7524                       # number of overall misses
system.cpu3.dcache.overall_accesses::total       259098                       # number of overall (read+write) accesses
system.cpu3.dcache.overall_miss_rate::total     0.029039                       # miss rate for overall accesses
system.cpu3.icache.overall_hits::total         680238                       # number of overall hits
system.cpu3.icache.overall_misses::total         7323                       # number of overall misses
system.cpu3.icache.overall_accesses::total       687561                       # number of overall (read+write) accesses
system.cpu3.icache.overall_miss_rate::total     0.010651                       # miss rate for overall accesses
system.l2.overall_hits::total                  500931                       # number of overall hits
system.l2.overall_misses::total                169809                       # number of overall misses
system.l2.overall_accesses::total              670740                       # number of overall (read+write) accesses
system.l2.overall_miss_rate::total           0.253167                       # miss rate for overall accesses
---------- End Simulation Statistics   ----------
---------- Begin Simulation Statistics ----------
system.cpu0.dcache.overall_hits::total       20400545                       # number of overall hits
system.cpu0.dcache.overall_misses::total         2452                       # number of overall misses
system.cpu0.dcache.overall_accesses::total     20402997                       # number of overall (read+write) accesses
system.cpu0.dcache.overall_miss_rate::total     0.000120                       # miss rate for overall accesses
system.cpu0.icache.overall_hits::total       93800926                       # number of overall hits
system.cpu0.icache.overall_misses::total          636                       # number of overall misses
system.cpu0.icache.overall_accesses::total     93801562                       # number of overall (read+write) accesses
system.cpu0.icache.overall_miss_rate::total     0.000007                       # miss rate for overall accesses
system.cpu1.dcache.overall_hits::total       20826837                       # number of overall hits
system.cpu1.dcache.overall_misses::total        12912                       # number of overall misses
system.cpu1.dcache.overall_accesses::total     20839749                       # number of overall (read+write) accesses
system.cpu1.dcache.overall_miss_rate::total     0.000620                       # miss rate for overall accesses
system.cpu1.icache.overall_hits::total       95612841                       # number of overall hits
system.cpu1.icache.overall_misses::total         2343                       # number of overall misses
system.cpu1.icache.overall_accesses::total     95615184                       # number of overall (read+write) accesses
system.cpu1.icache.overall_miss_rate::total     0.000025                       # miss rate for overall accesses
system.cpu2.dcache.overall_hits::total       21172903                       # number of overall hits
system.cpu2.dcache.overall_misses::total        13354                       # number of overall misses
system.cpu2.dcache.overall_accesses::total     21186257                       # number of overall (read+write) accesses
system.cpu2.dcache.overall_miss_rate::total     0.000630                       # miss rate for overall accesses
system.cpu2.icache.overall_hits::total       97219334                       # number of overall hits
system.cpu2.icache.overall_misses::total         5815                       # number of overall misses
system.cpu2.icache.overall_accesses::total     97225149                       # number of overall (read+write) accesses
system.cpu2.icache.overall_miss_rate::total     0.000060                       # miss rate for overall accesses
system.cpu3.dcache.overall_hits::total       19514020                       # number of overall hits
system.cpu3.dcache.overall_misses::total         6685                       # number of overall misses
system.cpu3.dcache.overall_accesses::total     19520705                       # number of overall (read+write) accesses
system.cpu3.dcache.overall_miss_rate::total     0.000342                       # miss rate for overall accesses
system.cpu3.icache.overall_hits::total       89709544                       # number of overall hits
system.cpu3.icache.overall_misses::total          796                       # number of overall misses
system.cpu3.icache.overall_accesses::total     89710340                       # number of overall (read+write) accesses
system.cpu3.icache.overall_miss_rate::total     0.000009                       # miss rate for overall accesses
system.l2.overall_hits::total                   30739                       # number of overall hits
system.l2.overall_misses::total                 12082                       # number of overall misses
system.l2.overall_accesses::total               42821                       # number of overall (read+write) accesses
system.l2.overall_miss_rate::total           0.282151                       # miss rate for overall accesses
---------- End Simulation Statistics   ----------
