---------- Begin Simulation Statistics ----------
system.cpu0.dcache.overall_hits::total       23017645                       # number of overall hits
system.cpu0.dcache.overall_misses::total      2012769                       # number of overall misses
system.cpu0.dcache.overall_accesses::total     25030414                       # number of overall (read+write) accesses
system.cpu0.dcache.overall_miss_rate::total     0.080413                       # miss rate for overall accesses
system.cpu0.icache.overall_hits::total      283107668                       # number of overall hits
system.cpu0.icache.overall_misses::total       622291                       # number of overall misses
system.cpu0.icache.overall_accesses::total    283729959                       # number of overall (read+write) accesses
system.cpu0.icache.overall_miss_rate::total     0.002193                       # miss rate for overall accesses
system.cpu1.dcache.overall_hits::total        2643432                       # number of overall hits
system.cpu1.dcache.overall_misses::total       386257                       # number of overall misses
system.cpu1.dcache.overall_accesses::total      3029689                       # number of overall (read+write) accesses
system.cpu1.dcache.overall_miss_rate::total     0.127491                       # miss rate for overall accesses
system.cpu1.icache.overall_hits::total       13686127                       # number of overall hits
system.cpu1.icache.overall_misses::total        44603                       # number of overall misses
system.cpu1.icache.overall_accesses::total     13730730                       # number of overall (read+write) accesses
system.cpu1.icache.overall_miss_rate::total     0.003248                       # miss rate for overall accesses
system.cpu2.dcache.overall_hits::total        2182582                       # number of overall hits
system.cpu2.dcache.overall_misses::total        57082                       # number of overall misses
system.cpu2.dcache.overall_accesses::total      2239664                       # number of overall (read+write) accesses
system.cpu2.dcache.overall_miss_rate::total     0.025487                       # miss rate for overall accesses
system.cpu2.icache.overall_hits::total        8091880                       # number of overall hits
system.cpu2.icache.overall_misses::total        47957                       # number of overall misses
system.cpu2.icache.overall_accesses::total      8139837                       # number of overall (read+write) accesses
system.cpu2.icache.overall_miss_rate::total     0.005892                       # miss rate for overall accesses
system.cpu3.dcache.overall_hits::total        2316166                       # number of overall hits
system.cpu3.dcache.overall_misses::total        64168                       # number of overall misses
system.cpu3.dcache.overall_accesses::total      2380334                       # number of overall (read+write) accesses
system.cpu3.dcache.overall_miss_rate::total     0.026958                       # miss rate for overall accesses
system.cpu3.icache.overall_hits::total        7818467                       # number of overall hits
system.cpu3.icache.overall_misses::total        44963                       # number of overall misses
system.cpu3.icache.overall_accesses::total      7863430                       # number of overall (read+write) accesses
system.cpu3.icache.overall_miss_rate::total     0.005718                       # miss rate for overall accesses
system.l2.overall_hits::total                 2297864                       # number of overall hits
system.l2.overall_misses::total                608751                       # number of overall misses
system.l2.overall_accesses::total             2906615                       # number of overall (read+write) accesses
system.l2.overall_miss_rate::total           0.209436                       # miss rate for overall accesses
---------- End Simulation Statistics   ----------
---------- Begin Simulation Statistics ----------
system.cpu0.dcache.overall_hits::total         203275                       # number of overall hits
system.cpu0.dcache.overall_misses::total         6624                       # number of overall misses
system.cpu0.dcache.overall_accesses::total       209899                       # number of overall (read+write) accesses
system.cpu0.dcache.overall_miss_rate::total     0.031558                       # miss rate for overall accesses
system.cpu0.icache.overall_hits::total         641939                       # number of overall hits
system.cpu0.icache.overall_misses::total        10681                       # number of overall misses
system.cpu0.icache.overall_accesses::total       652620                       # number of overall (read+write) accesses
system.cpu0.icache.overall_miss_rate::total     0.016366                       # miss rate for overall accesses
system.cpu1.dcache.overall_hits::total        2683143                       # number of overall hits
system.cpu1.dcache.overall_misses::total       182647                       # number of overall misses
system.cpu1.dcache.overall_accesses::total      2865790                       # number of overall (read+write) accesses
system.cpu1.dcache.overall_miss_rate::total     0.063734                       # miss rate for overall accesses
system.cpu1.icache.overall_hits::total        6190996                       # number of overall hits
system.cpu1.icache.overall_misses::total        16286                       # number of overall misses
system.cpu1.icache.overall_accesses::total      6207282                       # number of overall (read+write) accesses
system.cpu1.icache.overall_miss_rate::total     0.002624                       # miss rate for overall accesses
system.cpu2.dcache.overall_hits::total         145673                       # number of overall hits
system.cpu2.dcache.overall_misses::total         5974                       # number of overall misses
system.cpu2.dcache.overall_accesses::total       151647                       # number of overall (read+write) accesses
system.cpu2.dcache.overall_miss_rate::total     0.039394                       # miss rate for overall accesses
system.cpu2.icache.overall_hits::total         408189                       # number of overall hits
system.cpu2.icache.overall_misses::total         4797                       # number of overall misses
system.cpu2.icache.overall_accesses::total       412986                       # number of overall (read+write) accesses
system.cpu2.icache.overall_miss_rate::total     0.011615                       # miss rate for overall accesses
system.cpu3.dcache.overall_hits::total         175401                       # number of overall hits
system.cpu3.dcache.overall_misses::total         4377                       # number of overall misses
system.cpu3.dcache.overall_accesses::total       179778                       # number of overall (read+write) accesses
system.cpu3.dcache.overall_miss_rate::total     0.024347                       # miss rate for overall accesses
system.cpu3.icache.overall_hits::total         662461                       # number of overall hits
system.cpu3.icache.overall_misses::total         5077                       # number of overall misses
system.cpu3.icache.overall_accesses::total       667538                       # number of overall (read+write) accesses
system.cpu3.icache.overall_miss_rate::total     0.007606                       # miss rate for overall accesses
system.l2.overall_hits::total                   93361                       # number of overall hits
system.l2.overall_misses::total                140643                       # number of overall misses
system.l2.overall_accesses::total              234004                       # number of overall (read+write) accesses
system.l2.overall_miss_rate::total           0.601028                       # miss rate for overall accesses
---------- End Simulation Statistics   ----------
---------- Begin Simulation Statistics ----------
system.cpu0.dcache.overall_hits::total      466214374                       # number of overall hits
system.cpu0.dcache.overall_misses::total     13589240                       # number of overall misses
system.cpu0.dcache.overall_accesses::total    479803614                       # number of overall (read+write) accesses
system.cpu0.dcache.overall_miss_rate::total     0.028323                       # miss rate for overall accesses
system.cpu0.icache.overall_hits::total     1572287594                       # number of overall hits
system.cpu0.icache.overall_misses::total     12572463                       # number of overall misses
system.cpu0.icache.overall_accesses::total   1584860057                       # number of overall (read+write) accesses
system.cpu0.icache.overall_miss_rate::total     0.007933                       # miss rate for overall accesses
system.cpu1.dcache.overall_hits::total      468306088                       # number of overall hits
system.cpu1.dcache.overall_misses::total     13560152                       # number of overall misses
system.cpu1.dcache.overall_accesses::total    481866240                       # number of overall (read+write) accesses
system.cpu1.dcache.overall_miss_rate::total     0.028141                       # miss rate for overall accesses
system.cpu1.icache.overall_hits::total     1582348336                       # number of overall hits
system.cpu1.icache.overall_misses::total     12688698                       # number of overall misses
system.cpu1.icache.overall_accesses::total   1595037034                       # number of overall (read+write) accesses
system.cpu1.icache.overall_miss_rate::total     0.007955                       # miss rate for overall accesses
system.cpu2.dcache.overall_hits::total      445794840                       # number of overall hits
system.cpu2.dcache.overall_misses::total     13155810                       # number of overall misses
system.cpu2.dcache.overall_accesses::total    458950650                       # number of overall (read+write) accesses
system.cpu2.dcache.overall_miss_rate::total     0.028665                       # miss rate for overall accesses
system.cpu2.icache.overall_hits::total     1500521635                       # number of overall hits
system.cpu2.icache.overall_misses::total     12225283                       # number of overall misses
system.cpu2.icache.overall_accesses::total   1512746918                       # number of overall (read+write) accesses
system.cpu2.icache.overall_miss_rate::total     0.008082                       # miss rate for overall accesses
system.cpu3.dcache.overall_hits::total      466914210                       # number of overall hits
system.cpu3.dcache.overall_misses::total     13376648                       # number of overall misses
system.cpu3.dcache.overall_accesses::total    480290858                       # number of overall (read+write) accesses
system.cpu3.dcache.overall_miss_rate::total     0.027851                       # miss rate for overall accesses
system.cpu3.icache.overall_hits::total     1577137695                       # number of overall hits
system.cpu3.icache.overall_misses::total     12056022                       # number of overall misses
system.cpu3.icache.overall_accesses::total   1589193717                       # number of overall (read+write) accesses
system.cpu3.icache.overall_miss_rate::total     0.007586                       # miss rate for overall accesses
system.l2.overall_hits::total               101850925                       # number of overall hits
system.l2.overall_misses::total              22316407                       # number of overall misses
system.l2.overall_accesses::total           124167332                       # number of overall (read+write) accesses
system.l2.overall_miss_rate::total           0.179728                       # miss rate for overall accesses
---------- End Simulation Statistics   ----------
---------- Begin Simulation Statistics ----------
system.cpu0.dcache.overall_hits::total          21469                       # number of overall hits
system.cpu0.dcache.overall_misses::total          659                       # number of overall misses
system.cpu0.dcache.overall_accesses::total        22128                       # number of overall (read+write) accesses
system.cpu0.dcache.overall_miss_rate::total     0.029781                       # miss rate for overall accesses
system.cpu0.icache.overall_hits::total          52511                       # number of overall hits
system.cpu0.icache.overall_misses::total          214                       # number of overall misses
system.cpu0.icache.overall_accesses::total        52725                       # number of overall (read+write) accesses
system.cpu0.icache.overall_miss_rate::total     0.004059                       # miss rate for overall accesses
system.cpu1.dcache.overall_hits::total          20120                       # number of overall hits
system.cpu1.dcache.overall_misses::total          623                       # number of overall misses
system.cpu1.dcache.overall_accesses::total        20743                       # number of overall (read+write) accesses
system.cpu1.dcache.overall_miss_rate::total     0.030034                       # miss rate for overall accesses
system.cpu1.icache.overall_hits::total          49239                       # number of overall hits
system.cpu1.icache.overall_misses::total          128                       # number of overall misses
system.cpu1.icache.overall_accesses::total        49367                       # number of overall (read+write) accesses
system.cpu1.icache.overall_miss_rate::total     0.002593                       # miss rate for overall accesses
system.cpu2.dcache.overall_hits::total        7577736                       # number of overall hits
system.cpu2.dcache.overall_misses::total       139596                       # number of overall misses
system.cpu2.dcache.overall_accesses::total      7717332                       # number of overall (read+write) accesses
system.cpu2.dcache.overall_miss_rate::total     0.018089                       # miss rate for overall accesses
system.cpu2.icache.overall_hits::total       27689982                       # number of overall hits
system.cpu2.icache.overall_misses::total        13906                       # number of overall misses
system.cpu2.icache.overall_accesses::total     27703888                       # number of overall (read+write) accesses
system.cpu2.icache.overall_miss_rate::total     0.000502                       # miss rate for overall accesses
system.cpu3.dcache.overall_hits::total          58854                       # number of overall hits
system.cpu3.dcache.overall_misses::total         2738                       # number of overall misses
system.cpu3.dcache.overall_accesses::total        61592                       # number of overall (read+write) accesses
system.cpu3.dcache.overall_miss_rate::total     0.044454                       # miss rate for overall accesses
system.cpu3.icache.overall_hits::total         166300                       # number of overall hits
system.cpu3.icache.overall_misses::total         1582                       # number of overall misses
system.cpu3.icache.overall_accesses::total       167882                       # number of overall (read+write) accesses
system.cpu3.icache.overall_miss_rate::total     0.009423                       # miss rate for overall accesses
system.l2.overall_hits::total                   94999                       # number of overall hits
system.l2.overall_misses::total                 84183                       # number of overall misses
system.l2.overall_accesses::total              179182                       # number of overall (read+write) accesses
system.l2.overall_miss_rate::total           0.469818                       # miss rate for overall accesses
---------- End Simulation Statistics   ----------
