---------- Begin Simulation Statistics ----------
system.cpu0.dcache.overall_hits::total       23017645                       # number of overall hits
system.cpu0.dcache.overall_misses::total      2012769                       # number of overall misses
system.cpu0.dcache.overall_accesses::total     25030414                       # number of overall (read+write) accesses
system.cpu0.dcache.overall_miss_rate::total     0.080413                       # miss rate for overall accesses
system.cpu0.icache.overall_hits::total      283107668                       # number of overall hits
system.cpu0.icache.overall_misses::total       622291                       # number of overall misses
system.cpu0.icache.overall_accesses::total    283729959                       # number of overall (read+write) accesses
system.cpu0.icache.overall_miss_rate::total     0.002193                       # miss rate for overall accesses
system.cpu1.dcache.overall_hits::total        2643432                       # number of overall hits
system.cpu1.dcache.overall_misses::total       386257                       # number of overall misses
system.cpu1.dcache.overall_accesses::total      3029689                       # number of overall (read+write) accesses
system.cpu1.dcache.overall_miss_rate::total     0.127491                       # miss rate for overall accesses
system.cpu1.icache.overall_hits::total       13686127                       # number of overall hits
system.cpu1.icache.overall_misses::total        44603                       # number of overall misses
system.cpu1.icache.overall_accesses::total     13730730                       # number of overall (read+write) accesses
system.cpu1.icache.overall_miss_rate::total     0.003248                       # miss rate for overall accesses
system.cpu2.dcache.overall_hits::total        2182582                       # number of overall hits
system.cpu2.dcache.overall_misses::total        57082                       # number of overall misses
system.cpu2.dcache.overall_accesses::total      2239664                       # number of overall (read+write) accesses
system.cpu2.dcache.overall_miss_rate::total     0.025487                       # miss rate for overall accesses
system.cpu2.icache.overall_hits::total        8091880                       # number of overall hits
system.cpu2.icache.overall_misses::total        47957                       # number of overall misses
system.cpu2.icache.overall_accesses::total      8139837                       # number of overall (read+write) accesses
system.cpu2.icache.overall_miss_rate::total     0.005892                       # miss rate for overall accesses
system.cpu3.dcache.overall_hits::total        2316166                       # number of overall hits
system.cpu3.dcache.overall_misses::total        64162                       # number of overall misses
system.cpu3.dcache.overall_accesses::total      2380328                       # number of overall (read+write) accesses
system.cpu3.dcache.overall_miss_rate::total     0.026955                       # miss rate for overall accesses
system.cpu3.icache.overall_hits::total        7818495                       # number of overall hits
system.cpu3.icache.overall_misses::total        44963                       # number of overall misses
system.cpu3.icache.overall_accesses::total      7863458                       # number of overall (read+write) accesses
system.cpu3.icache.overall_miss_rate::total     0.005718                       # miss rate for overall accesses
system.l2.overall_hits::total                 2297858                       # number of overall hits
system.l2.overall_misses::total                608749                       # number of overall misses
system.l2.overall_accesses::total             2906607                       # number of overall (read+write) accesses
system.l2.overall_miss_rate::total           0.209436                       # miss rate for overall accesses
---------- End Simulation Statistics   ----------
---------- Begin Simulation Statistics ----------
system.cpu0.dcache.overall_hits::total         114893                       # number of overall hits
system.cpu0.dcache.overall_misses::total         4367                       # number of overall misses
system.cpu0.dcache.overall_accesses::total       119260                       # number of overall (read+write) accesses
system.cpu0.dcache.overall_miss_rate::total     0.036617                       # miss rate for overall accesses
system.cpu0.icache.overall_hits::total         341323                       # number of overall hits
system.cpu0.icache.overall_misses::total         4730                       # number of overall misses
system.cpu0.icache.overall_accesses::total       346053                       # number of overall (read+write) accesses
system.cpu0.icache.overall_miss_rate::total     0.013668                       # miss rate for overall accesses
system.cpu1.dcache.overall_hits::total         168361                       # number of overall hits
system.cpu1.dcache.overall_misses::total         4167                       # number of overall misses
system.cpu1.dcache.overall_accesses::total       172528                       # number of overall (read+write) accesses
system.cpu1.dcache.overall_miss_rate::total     0.024153                       # miss rate for overall accesses
system.cpu1.icache.overall_hits::total         517417                       # number of overall hits
system.cpu1.icache.overall_misses::total         5318                       # number of overall misses
system.cpu1.icache.overall_accesses::total       522735                       # number of overall (read+write) accesses
system.cpu1.icache.overall_miss_rate::total     0.010173                       # miss rate for overall accesses
system.cpu2.dcache.overall_hits::total         165153                       # number of overall hits
system.cpu2.dcache.overall_misses::total         6452                       # number of overall misses
system.cpu2.dcache.overall_accesses::total       171605                       # number of overall (read+write) accesses
system.cpu2.dcache.overall_miss_rate::total     0.037598                       # miss rate for overall accesses
system.cpu2.icache.overall_hits::total         464452                       # number of overall hits
system.cpu2.icache.overall_misses::total         6505                       # number of overall misses
system.cpu2.icache.overall_accesses::total       470957                       # number of overall (read+write) accesses
system.cpu2.icache.overall_miss_rate::total     0.013812                       # miss rate for overall accesses
system.cpu3.dcache.overall_hits::total          90724                       # number of overall hits
system.cpu3.dcache.overall_misses::total         2472                       # number of overall misses
system.cpu3.dcache.overall_accesses::total        93196                       # number of overall (read+write) accesses
system.cpu3.dcache.overall_miss_rate::total     0.026525                       # miss rate for overall accesses
system.cpu3.icache.overall_hits::total         259389                       # number of overall hits
system.cpu3.icache.overall_misses::total         2669                       # number of overall misses
system.cpu3.icache.overall_accesses::total       262058                       # number of overall (read+write) accesses
system.cpu3.icache.overall_miss_rate::total     0.010185                       # miss rate for overall accesses
system.l2.overall_hits::total                   26284                       # number of overall hits
system.l2.overall_misses::total                  3270                       # number of overall misses
system.l2.overall_accesses::total               29554                       # number of overall (read+write) accesses
system.l2.overall_miss_rate::total           0.110645                       # miss rate for overall accesses
---------- End Simulation Statistics   ----------
---------- Begin Simulation Statistics ----------
system.cpu0.dcache.overall_hits::total      296513883                       # number of overall hits
system.cpu0.dcache.overall_misses::total      1978633                       # number of overall misses
system.cpu0.dcache.overall_accesses::total    298492516                       # number of overall (read+write) accesses
system.cpu0.dcache.overall_miss_rate::total     0.006629                       # miss rate for overall accesses
system.cpu0.icache.overall_hits::total     1159392783                       # number of overall hits
system.cpu0.icache.overall_misses::total       328155                       # number of overall misses
system.cpu0.icache.overall_accesses::total   1159720938                       # number of overall (read+write) accesses
system.cpu0.icache.overall_miss_rate::total     0.000283                       # miss rate for overall accesses
system.cpu1.dcache.overall_hits::total      298329197                       # number of overall hits
system.cpu1.dcache.overall_misses::total      1693260                       # number of overall misses
system.cpu1.dcache.overall_accesses::total    300022457                       # number of overall (read+write) accesses
system.cpu1.dcache.overall_miss_rate::total     0.005644                       # miss rate for overall accesses
system.cpu1.icache.overall_hits::total     1165480103                       # number of overall hits
system.cpu1.icache.overall_misses::total       330167                       # number of overall misses
system.cpu1.icache.overall_accesses::total   1165810270                       # number of overall (read+write) accesses
system.cpu1.icache.overall_miss_rate::total     0.000283                       # miss rate for overall accesses
system.cpu2.dcache.overall_hits::total      295698548                       # number of overall hits
system.cpu2.dcache.overall_misses::total      1729710                       # number of overall misses
system.cpu2.dcache.overall_accesses::total    297428258                       # number of overall (read+write) accesses
system.cpu2.dcache.overall_miss_rate::total     0.005816                       # miss rate for overall accesses
system.cpu2.icache.overall_hits::total     1155475452                       # number of overall hits
system.cpu2.icache.overall_misses::total       328869                       # number of overall misses
system.cpu2.icache.overall_accesses::total   1155804321                       # number of overall (read+write) accesses
system.cpu2.icache.overall_miss_rate::total     0.000285                       # miss rate for overall accesses
system.cpu3.dcache.overall_hits::total      295125427                       # number of overall hits
system.cpu3.dcache.overall_misses::total      2214788                       # number of overall misses
system.cpu3.dcache.overall_accesses::total    297340215                       # number of overall (read+write) accesses
system.cpu3.dcache.overall_miss_rate::total     0.007449                       # miss rate for overall accesses
system.cpu3.icache.overall_hits::total     1155159515                       # number of overall hits
system.cpu3.icache.overall_misses::total       329156                       # number of overall misses
system.cpu3.icache.overall_accesses::total   1155488671                       # number of overall (read+write) accesses
system.cpu3.icache.overall_miss_rate::total     0.000285                       # miss rate for overall accesses
system.l2.overall_hits::total                 7980092                       # number of overall hits
system.l2.overall_misses::total                344817                       # number of overall misses
system.l2.overall_accesses::total             8324909                       # number of overall (read+write) accesses
system.l2.overall_miss_rate::total           0.041420                       # miss rate for overall accesses
---------- End Simulation Statistics   ----------
