---------- Begin Simulation Statistics ----------
system.cpu0.dcache.overall_hits::total       23019514                       # number of overall hits
system.cpu0.dcache.overall_misses::total      2010900                       # number of overall misses
system.cpu0.dcache.overall_accesses::total     25030414                       # number of overall (read+write) accesses
system.cpu0.dcache.overall_miss_rate::total     0.080338                       # miss rate for overall accesses
system.cpu0.icache.overall_hits::total      283107669                       # number of overall hits
system.cpu0.icache.overall_misses::total       622290                       # number of overall misses
system.cpu0.icache.overall_accesses::total    283729959                       # number of overall (read+write) accesses
system.cpu0.icache.overall_miss_rate::total     0.002193                       # miss rate for overall accesses
system.cpu1.dcache.overall_hits::total        2643667                       # number of overall hits
system.cpu1.dcache.overall_misses::total       386024                       # number of overall misses
system.cpu1.dcache.overall_accesses::total      3029691                       # number of overall (read+write) accesses
system.cpu1.dcache.overall_miss_rate::total     0.127414                       # miss rate for overall accesses
system.cpu1.icache.overall_hits::total       13686139                       # number of overall hits
system.cpu1.icache.overall_misses::total        44599                       # number of overall misses
system.cpu1.icache.overall_accesses::total     13730738                       # number of overall (read+write) accesses
system.cpu1.icache.overall_miss_rate::total     0.003248                       # miss rate for overall accesses
system.cpu2.dcache.overall_hits::total        2182562                       # number of overall hits
system.cpu2.dcache.overall_misses::total        57102                       # number of overall misses
system.cpu2.dcache.overall_accesses::total      2239664                       # number of overall (read+write) accesses
system.cpu2.dcache.overall_miss_rate::total     0.025496                       # miss rate for overall accesses
system.cpu2.icache.overall_hits::total        8091889                       # number of overall hits
system.cpu2.icache.overall_misses::total        47948                       # number of overall misses
system.cpu2.icache.overall_accesses::total      8139837                       # number of overall (read+write) accesses
system.cpu2.icache.overall_miss_rate::total     0.005891                       # miss rate for overall accesses
system.cpu3.dcache.overall_hits::total        2316016                       # number of overall hits
system.cpu3.dcache.overall_misses::total        64292                       # number of overall misses
system.cpu3.dcache.overall_accesses::total      2380308                       # number of overall (read+write) accesses
system.cpu3.dcache.overall_miss_rate::total     0.027010                       # miss rate for overall accesses
system.cpu3.icache.overall_hits::total        7818455                       # number of overall hits
system.cpu3.icache.overall_misses::total        44959                       # number of overall misses
system.cpu3.icache.overall_accesses::total      7863414                       # number of overall (read+write) accesses
system.cpu3.icache.overall_miss_rate::total     0.005717                       # miss rate for overall accesses
system.l2.overall_hits::total                 2287634                       # number of overall hits
system.l2.overall_misses::total                608034                       # number of overall misses
system.l2.overall_accesses::total             2895668                       # number of overall (read+write) accesses
system.l2.overall_miss_rate::total           0.209981                       # miss rate for overall accesses
---------- End Simulation Statistics   ----------
---------- Begin Simulation Statistics ----------
system.cpu0.dcache.overall_hits::total      203291910                       # number of overall hits
system.cpu0.dcache.overall_misses::total     10511866                       # number of overall misses
system.cpu0.dcache.overall_accesses::total    213803776                       # number of overall (read+write) accesses
system.cpu0.dcache.overall_miss_rate::total     0.049166                       # miss rate for overall accesses
system.cpu0.icache.overall_hits::total      666950423                       # number of overall hits
system.cpu0.icache.overall_misses::total      1137339                       # number of overall misses
system.cpu0.icache.overall_accesses::total    668087762                       # number of overall (read+write) accesses
system.cpu0.icache.overall_miss_rate::total     0.001702                       # miss rate for overall accesses
system.cpu1.dcache.overall_hits::total      632136149                       # number of overall hits
system.cpu1.dcache.overall_misses::total     21357420                       # number of overall misses
system.cpu1.dcache.overall_accesses::total    653493569                       # number of overall (read+write) accesses
system.cpu1.dcache.overall_miss_rate::total     0.032682                       # miss rate for overall accesses
system.cpu1.icache.overall_hits::total     2095714894                       # number of overall hits
system.cpu1.icache.overall_misses::total      7080759                       # number of overall misses
system.cpu1.icache.overall_accesses::total   2102795653                       # number of overall (read+write) accesses
system.cpu1.icache.overall_miss_rate::total     0.003367                       # miss rate for overall accesses
system.cpu2.dcache.overall_hits::total       54348780                       # number of overall hits
system.cpu2.dcache.overall_misses::total      1392744                       # number of overall misses
system.cpu2.dcache.overall_accesses::total     55741524                       # number of overall (read+write) accesses
system.cpu2.dcache.overall_miss_rate::total     0.024986                       # miss rate for overall accesses
system.cpu2.icache.overall_hits::total      165296578                       # number of overall hits
system.cpu2.icache.overall_misses::total        75143                       # number of overall misses
system.cpu2.icache.overall_accesses::total    165371721                       # number of overall (read+write) accesses
system.cpu2.icache.overall_miss_rate::total     0.000454                       # miss rate for overall accesses
system.cpu3.dcache.overall_hits::total      981674576                       # number of overall hits
system.cpu3.dcache.overall_misses::total     47411744                       # number of overall misses
system.cpu3.dcache.overall_accesses::total   1029086320                       # number of overall (read+write) accesses
system.cpu3.dcache.overall_miss_rate::total     0.046072                       # miss rate for overall accesses
system.cpu3.icache.overall_hits::total     3238813516                       # number of overall hits
system.cpu3.icache.overall_misses::total      6582756                       # number of overall misses
system.cpu3.icache.overall_accesses::total   3245396272                       # number of overall (read+write) accesses
system.cpu3.icache.overall_miss_rate::total     0.002028                       # miss rate for overall accesses
system.l2.overall_hits::total               151256532                       # number of overall hits
system.l2.overall_misses::total              43214086                       # number of overall misses
system.l2.overall_accesses::total           194470618                       # number of overall (read+write) accesses
system.l2.overall_miss_rate::total           0.222214                       # miss rate for overall accesses
---------- End Simulation Statistics   ----------
---------- Begin Simulation Statistics ----------
system.cpu0.dcache.overall_hits::total      132981301                       # number of overall hits
system.cpu0.dcache.overall_misses::total      9788999                       # number of overall misses
system.cpu0.dcache.overall_accesses::total    142770300                       # number of overall (read+write) accesses
system.cpu0.dcache.overall_miss_rate::total     0.068565                       # miss rate for overall accesses
system.cpu0.icache.overall_hits::total      561905761                       # number of overall hits
system.cpu0.icache.overall_misses::total       113552                       # number of overall misses
system.cpu0.icache.overall_accesses::total    562019313                       # number of overall (read+write) accesses
system.cpu0.icache.overall_miss_rate::total     0.000202                       # miss rate for overall accesses
system.cpu1.dcache.overall_hits::total      131663031                       # number of overall hits
system.cpu1.dcache.overall_misses::total      9704669                       # number of overall misses
system.cpu1.dcache.overall_accesses::total    141367700                       # number of overall (read+write) accesses
system.cpu1.dcache.overall_miss_rate::total     0.068648                       # miss rate for overall accesses
system.cpu1.icache.overall_hits::total      556810883                       # number of overall hits
system.cpu1.icache.overall_misses::total       107649                       # number of overall misses
system.cpu1.icache.overall_accesses::total    556918532                       # number of overall (read+write) accesses
system.cpu1.icache.overall_miss_rate::total     0.000193                       # miss rate for overall accesses
system.cpu2.dcache.overall_hits::total      131936999                       # number of overall hits
system.cpu2.dcache.overall_misses::total      9725783                       # number of overall misses
system.cpu2.dcache.overall_accesses::total    141662782                       # number of overall (read+write) accesses
system.cpu2.dcache.overall_miss_rate::total     0.068654                       # miss rate for overall accesses
system.cpu2.icache.overall_hits::total      557723844                       # number of overall hits
system.cpu2.icache.overall_misses::total       112584                       # number of overall misses
system.cpu2.icache.overall_accesses::total    557836428                       # number of overall (read+write) accesses
system.cpu2.icache.overall_miss_rate::total     0.000202                       # miss rate for overall accesses
system.cpu3.dcache.overall_hits::total      137005752                       # number of overall hits
system.cpu3.dcache.overall_misses::total     10097627                       # number of overall misses
system.cpu3.dcache.overall_accesses::total    147103379                       # number of overall (read+write) accesses
system.cpu3.dcache.overall_miss_rate::total     0.068643                       # miss rate for overall accesses
system.cpu3.icache.overall_hits::total      579512480                       # number of overall hits
system.cpu3.icache.overall_misses::total       114596                       # number of overall misses
system.cpu3.icache.overall_accesses::total    579627076                       # number of overall (read+write) accesses
system.cpu3.icache.overall_miss_rate::total     0.000198                       # miss rate for overall accesses
system.l2.overall_hits::total                72891587                       # number of overall hits
system.l2.overall_misses::total              36696934                       # number of overall misses
system.l2.overall_accesses::total           109588521                       # number of overall (read+write) accesses
system.l2.overall_miss_rate::total           0.334861                       # miss rate for overall accesses
---------- End Simulation Statistics   ----------
---------- Begin Simulation Statistics ----------
system.cpu0.dcache.overall_hits::total         104113                       # number of overall hits
system.cpu0.dcache.overall_misses::total         2439                       # number of overall misses
system.cpu0.dcache.overall_accesses::total       106552                       # number of overall (read+write) accesses
system.cpu0.dcache.overall_miss_rate::total     0.022890                       # miss rate for overall accesses
system.cpu0.icache.overall_hits::total         261382                       # number of overall hits
system.cpu0.icache.overall_misses::total         1072                       # number of overall misses
system.cpu0.icache.overall_accesses::total       262454                       # number of overall (read+write) accesses
system.cpu0.icache.overall_miss_rate::total     0.004085                       # miss rate for overall accesses
system.cpu1.dcache.overall_hits::total      120434405                       # number of overall hits
system.cpu1.dcache.overall_misses::total     18209497                       # number of overall misses
system.cpu1.dcache.overall_accesses::total    138643902                       # number of overall (read+write) accesses
system.cpu1.dcache.overall_miss_rate::total     0.131340                       # miss rate for overall accesses
system.cpu1.icache.overall_hits::total      460893172                       # number of overall hits
system.cpu1.icache.overall_misses::total         4317                       # number of overall misses
system.cpu1.icache.overall_accesses::total    460897489                       # number of overall (read+write) accesses
system.cpu1.icache.overall_miss_rate::total     0.000009                       # miss rate for overall accesses
system.cpu2.dcache.overall_hits::total         146263                       # number of overall hits
system.cpu2.dcache.overall_misses::total         4753                       # number of overall misses
system.cpu2.dcache.overall_accesses::total       151016                       # number of overall (read+write) accesses
system.cpu2.dcache.overall_miss_rate::total     0.031473                       # miss rate for overall accesses
system.cpu2.icache.overall_hits::total         387523                       # number of overall hits
system.cpu2.icache.overall_misses::total         2697                       # number of overall misses
system.cpu2.icache.overall_accesses::total       390220                       # number of overall (read+write) accesses
system.cpu2.icache.overall_miss_rate::total     0.006911                       # miss rate for overall accesses
system.cpu3.dcache.overall_hits::total         104534                       # number of overall hits
system.cpu3.dcache.overall_misses::total         2443                       # number of overall misses
system.cpu3.dcache.overall_accesses::total       106977                       # number of overall (read+write) accesses
system.cpu3.dcache.overall_miss_rate::total     0.022837                       # miss rate for overall accesses
system.cpu3.icache.overall_hits::total         262362                       # number of overall hits
system.cpu3.icache.overall_misses::total         1090                       # number of overall misses
system.cpu3.icache.overall_accesses::total       263452                       # number of overall (read+write) accesses
system.cpu3.icache.overall_miss_rate::total     0.004137                       # miss rate for overall accesses
system.l2.overall_hits::total                23897279                       # number of overall hits
system.l2.overall_misses::total              17997042                       # number of overall misses
system.l2.overall_accesses::total            41894321                       # number of overall (read+write) accesses
system.l2.overall_miss_rate::total           0.429582                       # miss rate for overall accesses
---------- End Simulation Statistics   ----------
