---------- Begin Simulation Statistics ----------
system.cpu0.dcache.overall_hits::total       23019514                       # number of overall hits
system.cpu0.dcache.overall_misses::total      2010900                       # number of overall misses
system.cpu0.dcache.overall_accesses::total     25030414                       # number of overall (read+write) accesses
system.cpu0.dcache.overall_miss_rate::total     0.080338                       # miss rate for overall accesses
system.cpu0.icache.overall_hits::total      283107669                       # number of overall hits
system.cpu0.icache.overall_misses::total       622290                       # number of overall misses
system.cpu0.icache.overall_accesses::total    283729959                       # number of overall (read+write) accesses
system.cpu0.icache.overall_miss_rate::total     0.002193                       # miss rate for overall accesses
system.cpu1.dcache.overall_hits::total        2643668                       # number of overall hits
system.cpu1.dcache.overall_misses::total       386023                       # number of overall misses
system.cpu1.dcache.overall_accesses::total      3029691                       # number of overall (read+write) accesses
system.cpu1.dcache.overall_miss_rate::total     0.127413                       # miss rate for overall accesses
system.cpu1.icache.overall_hits::total       13686139                       # number of overall hits
system.cpu1.icache.overall_misses::total        44599                       # number of overall misses
system.cpu1.icache.overall_accesses::total     13730738                       # number of overall (read+write) accesses
system.cpu1.icache.overall_miss_rate::total     0.003248                       # miss rate for overall accesses
system.cpu2.dcache.overall_hits::total        2182562                       # number of overall hits
system.cpu2.dcache.overall_misses::total        57102                       # number of overall misses
system.cpu2.dcache.overall_accesses::total      2239664                       # number of overall (read+write) accesses
system.cpu2.dcache.overall_miss_rate::total     0.025496                       # miss rate for overall accesses
system.cpu2.icache.overall_hits::total        8091889                       # number of overall hits
system.cpu2.icache.overall_misses::total        47948                       # number of overall misses
system.cpu2.icache.overall_accesses::total      8139837                       # number of overall (read+write) accesses
system.cpu2.icache.overall_miss_rate::total     0.005891                       # miss rate for overall accesses
system.cpu3.dcache.overall_hits::total        2316066                       # number of overall hits
system.cpu3.dcache.overall_misses::total        64268                       # number of overall misses
system.cpu3.dcache.overall_accesses::total      2380334                       # number of overall (read+write) accesses
system.cpu3.dcache.overall_miss_rate::total     0.027000                       # miss rate for overall accesses
system.cpu3.icache.overall_hits::total        7818471                       # number of overall hits
system.cpu3.icache.overall_misses::total        44959                       # number of overall misses
system.cpu3.icache.overall_accesses::total      7863430                       # number of overall (read+write) accesses
system.cpu3.icache.overall_miss_rate::total     0.005717                       # miss rate for overall accesses
system.l2.overall_hits::total                 2287613                       # number of overall hits
system.l2.overall_misses::total                608033                       # number of overall misses
system.l2.overall_accesses::total             2895646                       # number of overall (read+write) accesses
system.l2.overall_miss_rate::total           0.209982                       # miss rate for overall accesses
---------- End Simulation Statistics   ----------
---------- Begin Simulation Statistics ----------
system.cpu0.dcache.overall_hits::total         203333                       # number of overall hits
system.cpu0.dcache.overall_misses::total         6566                       # number of overall misses
system.cpu0.dcache.overall_accesses::total       209899                       # number of overall (read+write) accesses
system.cpu0.dcache.overall_miss_rate::total     0.031282                       # miss rate for overall accesses
system.cpu0.icache.overall_hits::total         641940                       # number of overall hits
system.cpu0.icache.overall_misses::total        10680                       # number of overall misses
system.cpu0.icache.overall_accesses::total       652620                       # number of overall (read+write) accesses
system.cpu0.icache.overall_miss_rate::total     0.016365                       # miss rate for overall accesses
system.cpu1.dcache.overall_hits::total        2682459                       # number of overall hits
system.cpu1.dcache.overall_misses::total       183331                       # number of overall misses
system.cpu1.dcache.overall_accesses::total      2865790                       # number of overall (read+write) accesses
system.cpu1.dcache.overall_miss_rate::total     0.063972                       # miss rate for overall accesses
system.cpu1.icache.overall_hits::total        6191003                       # number of overall hits
system.cpu1.icache.overall_misses::total        16279                       # number of overall misses
system.cpu1.icache.overall_accesses::total      6207282                       # number of overall (read+write) accesses
system.cpu1.icache.overall_miss_rate::total     0.002623                       # miss rate for overall accesses
system.cpu2.dcache.overall_hits::total         145708                       # number of overall hits
system.cpu2.dcache.overall_misses::total         5939                       # number of overall misses
system.cpu2.dcache.overall_accesses::total       151647                       # number of overall (read+write) accesses
system.cpu2.dcache.overall_miss_rate::total     0.039163                       # miss rate for overall accesses
system.cpu2.icache.overall_hits::total         408188                       # number of overall hits
system.cpu2.icache.overall_misses::total         4798                       # number of overall misses
system.cpu2.icache.overall_accesses::total       412986                       # number of overall (read+write) accesses
system.cpu2.icache.overall_miss_rate::total     0.011618                       # miss rate for overall accesses
system.cpu3.dcache.overall_hits::total         175421                       # number of overall hits
system.cpu3.dcache.overall_misses::total         4357                       # number of overall misses
system.cpu3.dcache.overall_accesses::total       179778                       # number of overall (read+write) accesses
system.cpu3.dcache.overall_miss_rate::total     0.024235                       # miss rate for overall accesses
system.cpu3.icache.overall_hits::total         662461                       # number of overall hits
system.cpu3.icache.overall_misses::total         5077                       # number of overall misses
system.cpu3.icache.overall_accesses::total       667538                       # number of overall (read+write) accesses
system.cpu3.icache.overall_miss_rate::total     0.007606                       # miss rate for overall accesses
system.l2.overall_hits::total                   90626                       # number of overall hits
system.l2.overall_misses::total                140753                       # number of overall misses
system.l2.overall_accesses::total              231379                       # number of overall (read+write) accesses
system.l2.overall_miss_rate::total           0.608322                       # miss rate for overall accesses
---------- End Simulation Statistics   ----------
---------- Begin Simulation Statistics ----------
system.cpu0.dcache.overall_hits::total      466217337                       # number of overall hits
system.cpu0.dcache.overall_misses::total     13586864                       # number of overall misses
system.cpu0.dcache.overall_accesses::total    479804201                       # number of overall (read+write) accesses
system.cpu0.dcache.overall_miss_rate::total     0.028318                       # miss rate for overall accesses
system.cpu0.icache.overall_hits::total     1572290698                       # number of overall hits
system.cpu0.icache.overall_misses::total     12570474                       # number of overall misses
system.cpu0.icache.overall_accesses::total   1584861172                       # number of overall (read+write) accesses
system.cpu0.icache.overall_miss_rate::total     0.007932                       # miss rate for overall accesses
system.cpu1.dcache.overall_hits::total      468311330                       # number of overall hits
system.cpu1.dcache.overall_misses::total     13552461                       # number of overall misses
system.cpu1.dcache.overall_accesses::total    481863791                       # number of overall (read+write) accesses
system.cpu1.dcache.overall_miss_rate::total     0.028125                       # miss rate for overall accesses
system.cpu1.icache.overall_hits::total     1582342698                       # number of overall hits
system.cpu1.icache.overall_misses::total     12686885                       # number of overall misses
system.cpu1.icache.overall_accesses::total   1595029583                       # number of overall (read+write) accesses
system.cpu1.icache.overall_miss_rate::total     0.007954                       # miss rate for overall accesses
system.cpu2.dcache.overall_hits::total      445809180                       # number of overall hits
system.cpu2.dcache.overall_misses::total     13144012                       # number of overall misses
system.cpu2.dcache.overall_accesses::total    458953192                       # number of overall (read+write) accesses
system.cpu2.dcache.overall_miss_rate::total     0.028639                       # miss rate for overall accesses
system.cpu2.icache.overall_hits::total     1500529880                       # number of overall hits
system.cpu2.icache.overall_misses::total     12223889                       # number of overall misses
system.cpu2.icache.overall_accesses::total   1512753769                       # number of overall (read+write) accesses
system.cpu2.icache.overall_miss_rate::total     0.008081                       # miss rate for overall accesses
system.cpu3.dcache.overall_hits::total      466920438                       # number of overall hits
system.cpu3.dcache.overall_misses::total     13371566                       # number of overall misses
system.cpu3.dcache.overall_accesses::total    480292004                       # number of overall (read+write) accesses
system.cpu3.dcache.overall_miss_rate::total     0.027840                       # miss rate for overall accesses
system.cpu3.icache.overall_hits::total     1577143373                       # number of overall hits
system.cpu3.icache.overall_misses::total     12054549                       # number of overall misses
system.cpu3.icache.overall_accesses::total   1589197922                       # number of overall (read+write) accesses
system.cpu3.icache.overall_miss_rate::total     0.007585                       # miss rate for overall accesses
system.l2.overall_hits::total               102986509                       # number of overall hits
system.l2.overall_misses::total              22484060                       # number of overall misses
system.l2.overall_accesses::total           125470569                       # number of overall (read+write) accesses
system.l2.overall_miss_rate::total           0.179198                       # miss rate for overall accesses
---------- End Simulation Statistics   ----------
---------- Begin Simulation Statistics ----------
system.cpu0.dcache.overall_hits::total          21469                       # number of overall hits
system.cpu0.dcache.overall_misses::total          659                       # number of overall misses
system.cpu0.dcache.overall_accesses::total        22128                       # number of overall (read+write) accesses
system.cpu0.dcache.overall_miss_rate::total     0.029781                       # miss rate for overall accesses
system.cpu0.icache.overall_hits::total          52511                       # number of overall hits
system.cpu0.icache.overall_misses::total          214                       # number of overall misses
system.cpu0.icache.overall_accesses::total        52725                       # number of overall (read+write) accesses
system.cpu0.icache.overall_miss_rate::total     0.004059                       # miss rate for overall accesses
system.cpu1.dcache.overall_hits::total          20120                       # number of overall hits
system.cpu1.dcache.overall_misses::total          623                       # number of overall misses
system.cpu1.dcache.overall_accesses::total        20743                       # number of overall (read+write) accesses
system.cpu1.dcache.overall_miss_rate::total     0.030034                       # miss rate for overall accesses
system.cpu1.icache.overall_hits::total          49239                       # number of overall hits
system.cpu1.icache.overall_misses::total          128                       # number of overall misses
system.cpu1.icache.overall_accesses::total        49367                       # number of overall (read+write) accesses
system.cpu1.icache.overall_miss_rate::total     0.002593                       # miss rate for overall accesses
system.cpu2.dcache.overall_hits::total        7577576                       # number of overall hits
system.cpu2.dcache.overall_misses::total       139724                       # number of overall misses
system.cpu2.dcache.overall_accesses::total      7717300                       # number of overall (read+write) accesses
system.cpu2.dcache.overall_miss_rate::total     0.018105                       # miss rate for overall accesses
system.cpu2.icache.overall_hits::total       27689814                       # number of overall hits
system.cpu2.icache.overall_misses::total        13904                       # number of overall misses
system.cpu2.icache.overall_accesses::total     27703718                       # number of overall (read+write) accesses
system.cpu2.icache.overall_miss_rate::total     0.000502                       # miss rate for overall accesses
system.cpu3.dcache.overall_hits::total          58849                       # number of overall hits
system.cpu3.dcache.overall_misses::total         2743                       # number of overall misses
system.cpu3.dcache.overall_accesses::total        61592                       # number of overall (read+write) accesses
system.cpu3.dcache.overall_miss_rate::total     0.044535                       # miss rate for overall accesses
system.cpu3.icache.overall_hits::total         166299                       # number of overall hits
system.cpu3.icache.overall_misses::total         1583                       # number of overall misses
system.cpu3.icache.overall_accesses::total       167882                       # number of overall (read+write) accesses
system.cpu3.icache.overall_miss_rate::total     0.009429                       # miss rate for overall accesses
system.l2.overall_hits::total                   91184                       # number of overall hits
system.l2.overall_misses::total                 84487                       # number of overall misses
system.l2.overall_accesses::total              175671                       # number of overall (read+write) accesses
system.l2.overall_miss_rate::total           0.480939                       # miss rate for overall accesses
---------- End Simulation Statistics   ----------
