---------- Begin Simulation Statistics ----------
system.cpu0.dcache.overall_hits::total       23019514                       # number of overall hits
system.cpu0.dcache.overall_misses::total      2010900                       # number of overall misses
system.cpu0.dcache.overall_accesses::total     25030414                       # number of overall (read+write) accesses
system.cpu0.dcache.overall_miss_rate::total     0.080338                       # miss rate for overall accesses
system.cpu0.icache.overall_hits::total      283107669                       # number of overall hits
system.cpu0.icache.overall_misses::total       622290                       # number of overall misses
system.cpu0.icache.overall_accesses::total    283729959                       # number of overall (read+write) accesses
system.cpu0.icache.overall_miss_rate::total     0.002193                       # miss rate for overall accesses
system.cpu1.dcache.overall_hits::total        2643667                       # number of overall hits
system.cpu1.dcache.overall_misses::total       386024                       # number of overall misses
system.cpu1.dcache.overall_accesses::total      3029691                       # number of overall (read+write) accesses
system.cpu1.dcache.overall_miss_rate::total     0.127414                       # miss rate for overall accesses
system.cpu1.icache.overall_hits::total       13686139                       # number of overall hits
system.cpu1.icache.overall_misses::total        44599                       # number of overall misses
system.cpu1.icache.overall_accesses::total     13730738                       # number of overall (read+write) accesses
system.cpu1.icache.overall_miss_rate::total     0.003248                       # miss rate for overall accesses
system.cpu2.dcache.overall_hits::total        2182563                       # number of overall hits
system.cpu2.dcache.overall_misses::total        57101                       # number of overall misses
system.cpu2.dcache.overall_accesses::total      2239664                       # number of overall (read+write) accesses
system.cpu2.dcache.overall_miss_rate::total     0.025495                       # miss rate for overall accesses
system.cpu2.icache.overall_hits::total        8091889                       # number of overall hits
system.cpu2.icache.overall_misses::total        47948                       # number of overall misses
system.cpu2.icache.overall_accesses::total      8139837                       # number of overall (read+write) accesses
system.cpu2.icache.overall_miss_rate::total     0.005891                       # miss rate for overall accesses
system.cpu3.dcache.overall_hits::total        2316021                       # number of overall hits
system.cpu3.dcache.overall_misses::total        64296                       # number of overall misses
system.cpu3.dcache.overall_accesses::total      2380317                       # number of overall (read+write) accesses
system.cpu3.dcache.overall_miss_rate::total     0.027012                       # miss rate for overall accesses
system.cpu3.icache.overall_hits::total        7818466                       # number of overall hits
system.cpu3.icache.overall_misses::total        44959                       # number of overall misses
system.cpu3.icache.overall_accesses::total      7863425                       # number of overall (read+write) accesses
system.cpu3.icache.overall_miss_rate::total     0.005717                       # miss rate for overall accesses
system.l2.overall_hits::total                 2287641                       # number of overall hits
system.l2.overall_misses::total                608033                       # number of overall misses
system.l2.overall_accesses::total             2895674                       # number of overall (read+write) accesses
system.l2.overall_miss_rate::total           0.209980                       # miss rate for overall accesses
---------- End Simulation Statistics   ----------
---------- Begin Simulation Statistics ----------
system.cpu0.dcache.overall_hits::total           6007                       # number of overall hits
system.cpu0.dcache.overall_misses::total          253                       # number of overall misses
system.cpu0.dcache.overall_accesses::total         6260                       # number of overall (read+write) accesses
system.cpu0.dcache.overall_miss_rate::total     0.040415                       # miss rate for overall accesses
system.cpu0.icache.overall_hits::total          14682                       # number of overall hits
system.cpu0.icache.overall_misses::total           70                       # number of overall misses
system.cpu0.icache.overall_accesses::total        14752                       # number of overall (read+write) accesses
system.cpu0.icache.overall_miss_rate::total     0.004745                       # miss rate for overall accesses
system.cpu1.dcache.overall_hits::total           6034                       # number of overall hits
system.cpu1.dcache.overall_misses::total          222                       # number of overall misses
system.cpu1.dcache.overall_accesses::total         6256                       # number of overall (read+write) accesses
system.cpu1.dcache.overall_miss_rate::total     0.035486                       # miss rate for overall accesses
system.cpu1.icache.overall_hits::total          14702                       # number of overall hits
system.cpu1.icache.overall_misses::total           70                       # number of overall misses
system.cpu1.icache.overall_accesses::total        14772                       # number of overall (read+write) accesses
system.cpu1.icache.overall_miss_rate::total     0.004739                       # miss rate for overall accesses
system.cpu2.dcache.overall_hits::total         132540                       # number of overall hits
system.cpu2.dcache.overall_misses::total         6807                       # number of overall misses
system.cpu2.dcache.overall_accesses::total       139347                       # number of overall (read+write) accesses
system.cpu2.dcache.overall_miss_rate::total     0.048849                       # miss rate for overall accesses
system.cpu2.icache.overall_hits::total         348554                       # number of overall hits
system.cpu2.icache.overall_misses::total         5150                       # number of overall misses
system.cpu2.icache.overall_accesses::total       353704                       # number of overall (read+write) accesses
system.cpu2.icache.overall_miss_rate::total     0.014560                       # miss rate for overall accesses
system.cpu3.dcache.overall_hits::total          44549                       # number of overall hits
system.cpu3.dcache.overall_misses::total         2318                       # number of overall misses
system.cpu3.dcache.overall_accesses::total        46867                       # number of overall (read+write) accesses
system.cpu3.dcache.overall_miss_rate::total     0.049459                       # miss rate for overall accesses
system.cpu3.icache.overall_hits::total         131603                       # number of overall hits
system.cpu3.icache.overall_misses::total         1548                       # number of overall misses
system.cpu3.icache.overall_accesses::total       133151                       # number of overall (read+write) accesses
system.cpu3.icache.overall_miss_rate::total     0.011626                       # miss rate for overall accesses
system.l2.overall_hits::total                   12731                       # number of overall hits
system.l2.overall_misses::total                  1901                       # number of overall misses
system.l2.overall_accesses::total               14632                       # number of overall (read+write) accesses
system.l2.overall_miss_rate::total           0.129921                       # miss rate for overall accesses
---------- End Simulation Statistics   ----------
