---------- Begin Simulation Statistics ----------
system.cpu0.dcache.overall_hits::total       14784073                       # number of overall hits
system.cpu0.dcache.overall_misses::total      2544085                       # number of overall misses
system.cpu0.dcache.overall_accesses::total     17328158                       # number of overall (read+write) accesses
system.cpu0.dcache.overall_miss_rate::total     0.146818                       # miss rate for overall accesses
system.cpu0.icache.overall_hits::total       72132900                       # number of overall hits
system.cpu0.icache.overall_misses::total       498454                       # number of overall misses
system.cpu0.icache.overall_accesses::total     72631354                       # number of overall (read+write) accesses
system.cpu0.icache.overall_miss_rate::total     0.006863                       # miss rate for overall accesses
system.cpu1.dcache.overall_hits::total        1648135                       # number of overall hits
system.cpu1.dcache.overall_misses::total        35039                       # number of overall misses
system.cpu1.dcache.overall_accesses::total      1683174                       # number of overall (read+write) accesses
system.cpu1.dcache.overall_miss_rate::total     0.020817                       # miss rate for overall accesses
system.cpu1.icache.overall_hits::total        5021692                       # number of overall hits
system.cpu1.icache.overall_misses::total        37802                       # number of overall misses
system.cpu1.icache.overall_accesses::total      5059494                       # number of overall (read+write) accesses
system.cpu1.icache.overall_miss_rate::total     0.007471                       # miss rate for overall accesses
system.cpu2.dcache.overall_hits::total        7483204                       # number of overall hits
system.cpu2.dcache.overall_misses::total       298986                       # number of overall misses
system.cpu2.dcache.overall_accesses::total      7782190                       # number of overall (read+write) accesses
system.cpu2.dcache.overall_miss_rate::total     0.038419                       # miss rate for overall accesses
system.cpu2.icache.overall_hits::total       24783309                       # number of overall hits
system.cpu2.icache.overall_misses::total       404825                       # number of overall misses
system.cpu2.icache.overall_accesses::total     25188134                       # number of overall (read+write) accesses
system.cpu2.icache.overall_miss_rate::total     0.016072                       # miss rate for overall accesses
system.cpu3.dcache.overall_hits::total        4526484                       # number of overall hits
system.cpu3.dcache.overall_misses::total       202099                       # number of overall misses
system.cpu3.dcache.overall_accesses::total      4728583                       # number of overall (read+write) accesses
system.cpu3.dcache.overall_miss_rate::total     0.042740                       # miss rate for overall accesses
system.cpu3.icache.overall_hits::total       13948585                       # number of overall hits
system.cpu3.icache.overall_misses::total       334240                       # number of overall misses
system.cpu3.icache.overall_accesses::total     14282825                       # number of overall (read+write) accesses
system.cpu3.icache.overall_miss_rate::total     0.023402                       # miss rate for overall accesses
system.l2.overall_hits::total                 2622308                       # number of overall hits
system.l2.overall_misses::total               1468596                       # number of overall misses
system.l2.overall_accesses::total             4090904                       # number of overall (read+write) accesses
system.l2.overall_miss_rate::total           0.358991                       # miss rate for overall accesses
---------- End Simulation Statistics   ----------
---------- Begin Simulation Statistics ----------
system.cpu0.dcache.overall_hits::total          87487                       # number of overall hits
system.cpu0.dcache.overall_misses::total         2323                       # number of overall misses
system.cpu0.dcache.overall_accesses::total        89810                       # number of overall (read+write) accesses
system.cpu0.dcache.overall_miss_rate::total     0.025866                       # miss rate for overall accesses
system.cpu0.icache.overall_hits::total         312583                       # number of overall hits
system.cpu0.icache.overall_misses::total         1813                       # number of overall misses
system.cpu0.icache.overall_accesses::total       314396                       # number of overall (read+write) accesses
system.cpu0.icache.overall_miss_rate::total     0.005767                       # miss rate for overall accesses
system.cpu1.dcache.overall_hits::total            615                       # number of overall hits
system.cpu1.dcache.overall_misses::total           52                       # number of overall misses
system.cpu1.dcache.overall_accesses::total          667                       # number of overall (read+write) accesses
system.cpu1.dcache.overall_miss_rate::total     0.077961                       # miss rate for overall accesses
system.cpu1.icache.overall_hits::total           1870                       # number of overall hits
system.cpu1.icache.overall_misses::total           88                       # number of overall misses
system.cpu1.icache.overall_accesses::total         1958                       # number of overall (read+write) accesses
system.cpu1.icache.overall_miss_rate::total     0.044944                       # miss rate for overall accesses
system.cpu2.dcache.overall_hits::total         295676                       # number of overall hits
system.cpu2.dcache.overall_misses::total         8362                       # number of overall misses
system.cpu2.dcache.overall_accesses::total       304038                       # number of overall (read+write) accesses
system.cpu2.dcache.overall_miss_rate::total     0.027503                       # miss rate for overall accesses
system.cpu2.icache.overall_hits::total         970656                       # number of overall hits
system.cpu2.icache.overall_misses::total        22681                       # number of overall misses
system.cpu2.icache.overall_accesses::total       993337                       # number of overall (read+write) accesses
system.cpu2.icache.overall_miss_rate::total     0.022833                       # miss rate for overall accesses
system.cpu3.dcache.overall_hits::total          75128                       # number of overall hits
system.cpu3.dcache.overall_misses::total         5179                       # number of overall misses
system.cpu3.dcache.overall_accesses::total        80307                       # number of overall (read+write) accesses
system.cpu3.dcache.overall_miss_rate::total     0.064490                       # miss rate for overall accesses
system.cpu3.icache.overall_hits::total         219080                       # number of overall hits
system.cpu3.icache.overall_misses::total         3432                       # number of overall misses
system.cpu3.icache.overall_accesses::total       222512                       # number of overall (read+write) accesses
system.cpu3.icache.overall_miss_rate::total     0.015424                       # miss rate for overall accesses
system.l2.overall_hits::total                   34998                       # number of overall hits
system.l2.overall_misses::total                  7491                       # number of overall misses
system.l2.overall_accesses::total               42489                       # number of overall (read+write) accesses
system.l2.overall_miss_rate::total           0.176304                       # miss rate for overall accesses
---------- End Simulation Statistics   ----------
---------- Begin Simulation Statistics ----------
system.cpu0.dcache.overall_hits::total     1850620196                       # number of overall hits
system.cpu0.dcache.overall_misses::total      7729466                       # number of overall misses
system.cpu0.dcache.overall_accesses::total   1858349662                       # number of overall (read+write) accesses
system.cpu0.dcache.overall_miss_rate::total     0.004159                       # miss rate for overall accesses
system.cpu0.icache.overall_hits::total     6549394943                       # number of overall hits
system.cpu0.icache.overall_misses::total      1116812                       # number of overall misses
system.cpu0.icache.overall_accesses::total   6550511755                       # number of overall (read+write) accesses
system.cpu0.icache.overall_miss_rate::total     0.000170                       # miss rate for overall accesses
system.cpu1.dcache.overall_hits::total     1802185558                       # number of overall hits
system.cpu1.dcache.overall_misses::total      8078824                       # number of overall misses
system.cpu1.dcache.overall_accesses::total   1810264382                       # number of overall (read+write) accesses
system.cpu1.dcache.overall_miss_rate::total     0.004463                       # miss rate for overall accesses
system.cpu1.icache.overall_hits::total     6506973541                       # number of overall hits
system.cpu1.icache.overall_misses::total      1067699                       # number of overall misses
system.cpu1.icache.overall_accesses::total   6508041240                       # number of overall (read+write) accesses
system.cpu1.icache.overall_miss_rate::total     0.000164                       # miss rate for overall accesses
system.cpu2.dcache.overall_hits::total     1884447765                       # number of overall hits
system.cpu2.dcache.overall_misses::total      6896863                       # number of overall misses
system.cpu2.dcache.overall_accesses::total   1891344628                       # number of overall (read+write) accesses
system.cpu2.dcache.overall_miss_rate::total     0.003647                       # miss rate for overall accesses
system.cpu2.icache.overall_hits::total     6514919491                       # number of overall hits
system.cpu2.icache.overall_misses::total       971716                       # number of overall misses
system.cpu2.icache.overall_accesses::total   6515891207                       # number of overall (read+write) accesses
system.cpu2.icache.overall_miss_rate::total     0.000149                       # miss rate for overall accesses
system.cpu3.dcache.overall_hits::total     1813504957                       # number of overall hits
system.cpu3.dcache.overall_misses::total      7781710                       # number of overall misses
system.cpu3.dcache.overall_accesses::total   1821286667                       # number of overall (read+write) accesses
system.cpu3.dcache.overall_miss_rate::total     0.004273                       # miss rate for overall accesses
system.cpu3.icache.overall_hits::total     6451172042                       # number of overall hits
system.cpu3.icache.overall_misses::total       999143                       # number of overall misses
system.cpu3.icache.overall_accesses::total   6452171185                       # number of overall (read+write) accesses
system.cpu3.icache.overall_miss_rate::total     0.000155                       # miss rate for overall accesses
system.l2.overall_hits::total                32009996                       # number of overall hits
system.l2.overall_misses::total               1431154                       # number of overall misses
system.l2.overall_accesses::total            33441150                       # number of overall (read+write) accesses
system.l2.overall_miss_rate::total           0.042796                       # miss rate for overall accesses
---------- End Simulation Statistics   ----------
---------- Begin Simulation Statistics ----------
system.cpu0.dcache.overall_hits::total        1845296                       # number of overall hits
system.cpu0.dcache.overall_misses::total        12261                       # number of overall misses
system.cpu0.dcache.overall_accesses::total      1857557                       # number of overall (read+write) accesses
system.cpu0.dcache.overall_miss_rate::total     0.006601                       # miss rate for overall accesses
system.cpu0.icache.overall_hits::total        6191228                       # number of overall hits
system.cpu0.icache.overall_misses::total         4698                       # number of overall misses
system.cpu0.icache.overall_accesses::total      6195926                       # number of overall (read+write) accesses
system.cpu0.icache.overall_miss_rate::total     0.000758                       # miss rate for overall accesses
system.cpu1.dcache.overall_hits::total           2019                       # number of overall hits
system.cpu1.dcache.overall_misses::total           61                       # number of overall misses
system.cpu1.dcache.overall_accesses::total         2080                       # number of overall (read+write) accesses
system.cpu1.dcache.overall_miss_rate::total     0.029327                       # miss rate for overall accesses
system.cpu1.icache.overall_hits::total           5930                       # number of overall hits
system.cpu1.icache.overall_misses::total          118                       # number of overall misses
system.cpu1.icache.overall_accesses::total         6048                       # number of overall (read+write) accesses
system.cpu1.icache.overall_miss_rate::total     0.019511                       # miss rate for overall accesses
system.cpu2.dcache.overall_hits::total         366757                       # number of overall hits
system.cpu2.dcache.overall_misses::total         8938                       # number of overall misses
system.cpu2.dcache.overall_accesses::total       375695                       # number of overall (read+write) accesses
system.cpu2.dcache.overall_miss_rate::total     0.023791                       # miss rate for overall accesses
system.cpu2.icache.overall_hits::total        1228511                       # number of overall hits
system.cpu2.icache.overall_misses::total        14768                       # number of overall misses
system.cpu2.icache.overall_accesses::total      1243279                       # number of overall (read+write) accesses
system.cpu2.icache.overall_miss_rate::total     0.011878                       # miss rate for overall accesses
system.cpu3.dcache.overall_hits::total          37329                       # number of overall hits
system.cpu3.dcache.overall_misses::total         1854                       # number of overall misses
system.cpu3.dcache.overall_accesses::total        39183                       # number of overall (read+write) accesses
system.cpu3.dcache.overall_miss_rate::total     0.047316                       # miss rate for overall accesses
system.cpu3.icache.overall_hits::total         140020                       # number of overall hits
system.cpu3.icache.overall_misses::total         1376                       # number of overall misses
system.cpu3.icache.overall_accesses::total       141396                       # number of overall (read+write) accesses
system.cpu3.icache.overall_miss_rate::total     0.009732                       # miss rate for overall accesses
system.l2.overall_hits::total                   29284                       # number of overall hits
system.l2.overall_misses::total                 12974                       # number of overall misses
system.l2.overall_accesses::total               42258                       # number of overall (read+write) accesses
system.l2.overall_miss_rate::total           0.307019                       # miss rate for overall accesses
---------- End Simulation Statistics   ----------
