---------- Begin Simulation Statistics ----------
system.cpu0.dcache.overall_hits::total       14744847                       # number of overall hits
system.cpu0.dcache.overall_misses::total      2583311                       # number of overall misses
system.cpu0.dcache.overall_accesses::total     17328158                       # number of overall (read+write) accesses
system.cpu0.dcache.overall_miss_rate::total     0.149082                       # miss rate for overall accesses
system.cpu0.icache.overall_hits::total       72129651                       # number of overall hits
system.cpu0.icache.overall_misses::total       501703                       # number of overall misses
system.cpu0.icache.overall_accesses::total     72631354                       # number of overall (read+write) accesses
system.cpu0.icache.overall_miss_rate::total     0.006908                       # miss rate for overall accesses
system.cpu1.dcache.overall_hits::total        1648546                       # number of overall hits
system.cpu1.dcache.overall_misses::total        34628                       # number of overall misses
system.cpu1.dcache.overall_accesses::total      1683174                       # number of overall (read+write) accesses
system.cpu1.dcache.overall_miss_rate::total     0.020573                       # miss rate for overall accesses
system.cpu1.icache.overall_hits::total        5021610                       # number of overall hits
system.cpu1.icache.overall_misses::total        37884                       # number of overall misses
system.cpu1.icache.overall_accesses::total      5059494                       # number of overall (read+write) accesses
system.cpu1.icache.overall_miss_rate::total     0.007488                       # miss rate for overall accesses
system.cpu2.dcache.overall_hits::total        7483391                       # number of overall hits
system.cpu2.dcache.overall_misses::total       298054                       # number of overall misses
system.cpu2.dcache.overall_accesses::total      7781445                       # number of overall (read+write) accesses
system.cpu2.dcache.overall_miss_rate::total     0.038303                       # miss rate for overall accesses
system.cpu2.icache.overall_hits::total       24781677                       # number of overall hits
system.cpu2.icache.overall_misses::total       404731                       # number of overall misses
system.cpu2.icache.overall_accesses::total     25186408                       # number of overall (read+write) accesses
system.cpu2.icache.overall_miss_rate::total     0.016069                       # miss rate for overall accesses
system.cpu3.dcache.overall_hits::total        4530075                       # number of overall hits
system.cpu3.dcache.overall_misses::total       198517                       # number of overall misses
system.cpu3.dcache.overall_accesses::total      4728592                       # number of overall (read+write) accesses
system.cpu3.dcache.overall_miss_rate::total     0.041982                       # miss rate for overall accesses
system.cpu3.icache.overall_hits::total       13945403                       # number of overall hits
system.cpu3.icache.overall_misses::total       337449                       # number of overall misses
system.cpu3.icache.overall_accesses::total     14282852                       # number of overall (read+write) accesses
system.cpu3.icache.overall_miss_rate::total     0.023626                       # miss rate for overall accesses
system.l2.overall_hits::total                 2734985                       # number of overall hits
system.l2.overall_misses::total               1396070                       # number of overall misses
system.l2.overall_accesses::total             4131055                       # number of overall (read+write) accesses
system.l2.overall_miss_rate::total           0.337945                       # miss rate for overall accesses
---------- End Simulation Statistics   ----------
---------- Begin Simulation Statistics ----------
system.cpu0.dcache.overall_hits::total      401364710                       # number of overall hits
system.cpu0.dcache.overall_misses::total       132741                       # number of overall misses
system.cpu0.dcache.overall_accesses::total    401497451                       # number of overall (read+write) accesses
system.cpu0.dcache.overall_miss_rate::total     0.000331                       # miss rate for overall accesses
system.cpu0.icache.overall_hits::total     4272335365                       # number of overall hits
system.cpu0.icache.overall_misses::total       221445                       # number of overall misses
system.cpu0.icache.overall_accesses::total   4272556810                       # number of overall (read+write) accesses
system.cpu0.icache.overall_miss_rate::total     0.000052                       # miss rate for overall accesses
system.cpu1.dcache.overall_hits::total      396624283                       # number of overall hits
system.cpu1.dcache.overall_misses::total       101781                       # number of overall misses
system.cpu1.dcache.overall_accesses::total    396726064                       # number of overall (read+write) accesses
system.cpu1.dcache.overall_miss_rate::total     0.000257                       # miss rate for overall accesses
system.cpu1.icache.overall_hits::total     4260576662                       # number of overall hits
system.cpu1.icache.overall_misses::total       175307                       # number of overall misses
system.cpu1.icache.overall_accesses::total   4260751969                       # number of overall (read+write) accesses
system.cpu1.icache.overall_miss_rate::total     0.000041                       # miss rate for overall accesses
system.cpu2.dcache.overall_hits::total    15792533452                       # number of overall hits
system.cpu2.dcache.overall_misses::total     40290717                       # number of overall misses
system.cpu2.dcache.overall_accesses::total  15832824169                       # number of overall (read+write) accesses
system.cpu2.dcache.overall_miss_rate::total     0.002545                       # miss rate for overall accesses
system.cpu2.icache.overall_hits::total    47057991531                       # number of overall hits
system.cpu2.icache.overall_misses::total    189847159                       # number of overall misses
system.cpu2.icache.overall_accesses::total  47247838690                       # number of overall (read+write) accesses
system.cpu2.icache.overall_miss_rate::total     0.004018                       # miss rate for overall accesses
system.cpu3.dcache.overall_hits::total      396773268                       # number of overall hits
system.cpu3.dcache.overall_misses::total       110309                       # number of overall misses
system.cpu3.dcache.overall_accesses::total    396883577                       # number of overall (read+write) accesses
system.cpu3.dcache.overall_miss_rate::total     0.000278                       # miss rate for overall accesses
system.cpu3.icache.overall_hits::total     4261025272                       # number of overall hits
system.cpu3.icache.overall_misses::total       182052                       # number of overall misses
system.cpu3.icache.overall_accesses::total   4261207324                       # number of overall (read+write) accesses
system.cpu3.icache.overall_miss_rate::total     0.000043                       # miss rate for overall accesses
system.l2.overall_hits::total               215756110                       # number of overall hits
system.l2.overall_misses::total              15205191                       # number of overall misses
system.l2.overall_accesses::total           230961301                       # number of overall (read+write) accesses
system.l2.overall_miss_rate::total           0.065834                       # miss rate for overall accesses
---------- End Simulation Statistics   ----------
---------- Begin Simulation Statistics ----------
system.cpu0.dcache.overall_hits::total       30282246                       # number of overall hits
system.cpu0.dcache.overall_misses::total          623                       # number of overall misses
system.cpu0.dcache.overall_accesses::total     30282869                       # number of overall (read+write) accesses
system.cpu0.dcache.overall_miss_rate::total     0.000021                       # miss rate for overall accesses
system.cpu0.icache.overall_hits::total      331970890                       # number of overall hits
system.cpu0.icache.overall_misses::total         1403                       # number of overall misses
system.cpu0.icache.overall_accesses::total    331972293                       # number of overall (read+write) accesses
system.cpu0.icache.overall_miss_rate::total     0.000004                       # miss rate for overall accesses
system.cpu1.dcache.overall_hits::total       30247160                       # number of overall hits
system.cpu1.dcache.overall_misses::total          477                       # number of overall misses
system.cpu1.dcache.overall_accesses::total     30247637                       # number of overall (read+write) accesses
system.cpu1.dcache.overall_miss_rate::total     0.000016                       # miss rate for overall accesses
system.cpu1.icache.overall_hits::total      331971031                       # number of overall hits
system.cpu1.icache.overall_misses::total         1262                       # number of overall misses
system.cpu1.icache.overall_accesses::total    331972293                       # number of overall (read+write) accesses
system.cpu1.icache.overall_miss_rate::total     0.000004                       # miss rate for overall accesses
system.cpu2.dcache.overall_hits::total       30260994                       # number of overall hits
system.cpu2.dcache.overall_misses::total         1321                       # number of overall misses
system.cpu2.dcache.overall_accesses::total     30262315                       # number of overall (read+write) accesses
system.cpu2.dcache.overall_miss_rate::total     0.000044                       # miss rate for overall accesses
system.cpu2.icache.overall_hits::total      331964243                       # number of overall hits
system.cpu2.icache.overall_misses::total         3217                       # number of overall misses
system.cpu2.icache.overall_accesses::total    331967460                       # number of overall (read+write) accesses
system.cpu2.icache.overall_miss_rate::total     0.000010                       # miss rate for overall accesses
system.cpu3.dcache.overall_hits::total       30247292                       # number of overall hits
system.cpu3.dcache.overall_misses::total          569                       # number of overall misses
system.cpu3.dcache.overall_accesses::total     30247861                       # number of overall (read+write) accesses
system.cpu3.dcache.overall_miss_rate::total     0.000019                       # miss rate for overall accesses
system.cpu3.icache.overall_hits::total      331971028                       # number of overall hits
system.cpu3.icache.overall_misses::total         1265                       # number of overall misses
system.cpu3.icache.overall_accesses::total    331972293                       # number of overall (read+write) accesses
system.cpu3.icache.overall_miss_rate::total     0.000004                       # miss rate for overall accesses
system.l2.overall_hits::total                    7627                       # number of overall hits
system.l2.overall_misses::total                  1409                       # number of overall misses
system.l2.overall_accesses::total                9036                       # number of overall (read+write) accesses
system.l2.overall_miss_rate::total           0.155932                       # miss rate for overall accesses
---------- End Simulation Statistics   ----------
---------- Begin Simulation Statistics ----------
system.cpu0.dcache.overall_hits::total        2533927                       # number of overall hits
system.cpu0.dcache.overall_misses::total        42886                       # number of overall misses
system.cpu0.dcache.overall_accesses::total      2576813                       # number of overall (read+write) accesses
system.cpu0.dcache.overall_miss_rate::total     0.016643                       # miss rate for overall accesses
system.cpu0.icache.overall_hits::total       10698442                       # number of overall hits
system.cpu0.icache.overall_misses::total         6300                       # number of overall misses
system.cpu0.icache.overall_accesses::total     10704742                       # number of overall (read+write) accesses
system.cpu0.icache.overall_miss_rate::total     0.000589                       # miss rate for overall accesses
system.cpu1.dcache.overall_hits::total          69531                       # number of overall hits
system.cpu1.dcache.overall_misses::total         3054                       # number of overall misses
system.cpu1.dcache.overall_accesses::total        72585                       # number of overall (read+write) accesses
system.cpu1.dcache.overall_miss_rate::total     0.042075                       # miss rate for overall accesses
system.cpu1.icache.overall_hits::total         261071                       # number of overall hits
system.cpu1.icache.overall_misses::total         3132                       # number of overall misses
system.cpu1.icache.overall_accesses::total       264203                       # number of overall (read+write) accesses
system.cpu1.icache.overall_miss_rate::total     0.011855                       # miss rate for overall accesses
system.cpu2.dcache.overall_hits::total         203768                       # number of overall hits
system.cpu2.dcache.overall_misses::total        13166                       # number of overall misses
system.cpu2.dcache.overall_accesses::total       216934                       # number of overall (read+write) accesses
system.cpu2.dcache.overall_miss_rate::total     0.060691                       # miss rate for overall accesses
system.cpu2.icache.overall_hits::total         581347                       # number of overall hits
system.cpu2.icache.overall_misses::total         7373                       # number of overall misses
system.cpu2.icache.overall_accesses::total       588720                       # number of overall (read+write) accesses
system.cpu2.icache.overall_miss_rate::total     0.012524                       # miss rate for overall accesses
system.cpu3.dcache.overall_hits::total          39299                       # number of overall hits
system.cpu3.dcache.overall_misses::total         1346                       # number of overall misses
system.cpu3.dcache.overall_accesses::total        40645                       # number of overall (read+write) accesses
system.cpu3.dcache.overall_miss_rate::total     0.033116                       # miss rate for overall accesses
system.cpu3.icache.overall_hits::total         128410                       # number of overall hits
system.cpu3.icache.overall_misses::total         1852                       # number of overall misses
system.cpu3.icache.overall_accesses::total       130262                       # number of overall (read+write) accesses
system.cpu3.icache.overall_miss_rate::total     0.014218                       # miss rate for overall accesses
system.l2.overall_hits::total                   41673                       # number of overall hits
system.l2.overall_misses::total                 36601                       # number of overall misses
system.l2.overall_accesses::total               78274                       # number of overall (read+write) accesses
system.l2.overall_miss_rate::total           0.467601                       # miss rate for overall accesses
---------- End Simulation Statistics   ----------
