---------- Begin Simulation Statistics ----------
system.cpu0.dcache.overall_hits::total       14744847                       # number of overall hits
system.cpu0.dcache.overall_misses::total      2583311                       # number of overall misses
system.cpu0.dcache.overall_accesses::total     17328158                       # number of overall (read+write) accesses
system.cpu0.dcache.overall_miss_rate::total     0.149082                       # miss rate for overall accesses
system.cpu0.icache.overall_hits::total       72129651                       # number of overall hits
system.cpu0.icache.overall_misses::total       501703                       # number of overall misses
system.cpu0.icache.overall_accesses::total     72631354                       # number of overall (read+write) accesses
system.cpu0.icache.overall_miss_rate::total     0.006908                       # miss rate for overall accesses
system.cpu1.dcache.overall_hits::total        1648546                       # number of overall hits
system.cpu1.dcache.overall_misses::total        34628                       # number of overall misses
system.cpu1.dcache.overall_accesses::total      1683174                       # number of overall (read+write) accesses
system.cpu1.dcache.overall_miss_rate::total     0.020573                       # miss rate for overall accesses
system.cpu1.icache.overall_hits::total        5021610                       # number of overall hits
system.cpu1.icache.overall_misses::total        37884                       # number of overall misses
system.cpu1.icache.overall_accesses::total      5059494                       # number of overall (read+write) accesses
system.cpu1.icache.overall_miss_rate::total     0.007488                       # miss rate for overall accesses
system.cpu2.dcache.overall_hits::total        7484129                       # number of overall hits
system.cpu2.dcache.overall_misses::total       298061                       # number of overall misses
system.cpu2.dcache.overall_accesses::total      7782190                       # number of overall (read+write) accesses
system.cpu2.dcache.overall_miss_rate::total     0.038300                       # miss rate for overall accesses
system.cpu2.icache.overall_hits::total       24783403                       # number of overall hits
system.cpu2.icache.overall_misses::total       404731                       # number of overall misses
system.cpu2.icache.overall_accesses::total     25188134                       # number of overall (read+write) accesses
system.cpu2.icache.overall_miss_rate::total     0.016068                       # miss rate for overall accesses
system.cpu3.dcache.overall_hits::total        4530068                       # number of overall hits
system.cpu3.dcache.overall_misses::total       198515                       # number of overall misses
system.cpu3.dcache.overall_accesses::total      4728583                       # number of overall (read+write) accesses
system.cpu3.dcache.overall_miss_rate::total     0.041982                       # miss rate for overall accesses
system.cpu3.icache.overall_hits::total       13945376                       # number of overall hits
system.cpu3.icache.overall_misses::total       337449                       # number of overall misses
system.cpu3.icache.overall_accesses::total     14282825                       # number of overall (read+write) accesses
system.cpu3.icache.overall_miss_rate::total     0.023626                       # miss rate for overall accesses
system.l2.overall_hits::total                 2734990                       # number of overall hits
system.l2.overall_misses::total               1396070                       # number of overall misses
system.l2.overall_accesses::total             4131060                       # number of overall (read+write) accesses
system.l2.overall_miss_rate::total           0.337945                       # miss rate for overall accesses
---------- End Simulation Statistics   ----------
---------- Begin Simulation Statistics ----------
system.cpu0.dcache.overall_hits::total          87520                       # number of overall hits
system.cpu0.dcache.overall_misses::total         2290                       # number of overall misses
system.cpu0.dcache.overall_accesses::total        89810                       # number of overall (read+write) accesses
system.cpu0.dcache.overall_miss_rate::total     0.025498                       # miss rate for overall accesses
system.cpu0.icache.overall_hits::total         312582                       # number of overall hits
system.cpu0.icache.overall_misses::total         1814                       # number of overall misses
system.cpu0.icache.overall_accesses::total       314396                       # number of overall (read+write) accesses
system.cpu0.icache.overall_miss_rate::total     0.005770                       # miss rate for overall accesses
system.cpu1.dcache.overall_hits::total            619                       # number of overall hits
system.cpu1.dcache.overall_misses::total           48                       # number of overall misses
system.cpu1.dcache.overall_accesses::total          667                       # number of overall (read+write) accesses
system.cpu1.dcache.overall_miss_rate::total     0.071964                       # miss rate for overall accesses
system.cpu1.icache.overall_hits::total           1870                       # number of overall hits
system.cpu1.icache.overall_misses::total           88                       # number of overall misses
system.cpu1.icache.overall_accesses::total         1958                       # number of overall (read+write) accesses
system.cpu1.icache.overall_miss_rate::total     0.044944                       # miss rate for overall accesses
system.cpu2.dcache.overall_hits::total         295792                       # number of overall hits
system.cpu2.dcache.overall_misses::total         8246                       # number of overall misses
system.cpu2.dcache.overall_accesses::total       304038                       # number of overall (read+write) accesses
system.cpu2.dcache.overall_miss_rate::total     0.027122                       # miss rate for overall accesses
system.cpu2.icache.overall_hits::total         970620                       # number of overall hits
system.cpu2.icache.overall_misses::total        22717                       # number of overall misses
system.cpu2.icache.overall_accesses::total       993337                       # number of overall (read+write) accesses
system.cpu2.icache.overall_miss_rate::total     0.022869                       # miss rate for overall accesses
system.cpu3.dcache.overall_hits::total          75236                       # number of overall hits
system.cpu3.dcache.overall_misses::total         5071                       # number of overall misses
system.cpu3.dcache.overall_accesses::total        80307                       # number of overall (read+write) accesses
system.cpu3.dcache.overall_miss_rate::total     0.063145                       # miss rate for overall accesses
system.cpu3.icache.overall_hits::total         219074                       # number of overall hits
system.cpu3.icache.overall_misses::total         3438                       # number of overall misses
system.cpu3.icache.overall_accesses::total       222512                       # number of overall (read+write) accesses
system.cpu3.icache.overall_miss_rate::total     0.015451                       # miss rate for overall accesses
system.l2.overall_hits::total                   37593                       # number of overall hits
system.l2.overall_misses::total                  4592                       # number of overall misses
system.l2.overall_accesses::total               42185                       # number of overall (read+write) accesses
system.l2.overall_miss_rate::total           0.108854                       # miss rate for overall accesses
---------- End Simulation Statistics   ----------
---------- Begin Simulation Statistics ----------
system.cpu0.dcache.overall_hits::total     1851359172                       # number of overall hits
system.cpu0.dcache.overall_misses::total      6990490                       # number of overall misses
system.cpu0.dcache.overall_accesses::total   1858349662                       # number of overall (read+write) accesses
system.cpu0.dcache.overall_miss_rate::total     0.003762                       # miss rate for overall accesses
system.cpu0.icache.overall_hits::total     6549408269                       # number of overall hits
system.cpu0.icache.overall_misses::total      1103486                       # number of overall misses
system.cpu0.icache.overall_accesses::total   6550511755                       # number of overall (read+write) accesses
system.cpu0.icache.overall_miss_rate::total     0.000168                       # miss rate for overall accesses
system.cpu1.dcache.overall_hits::total     1802758221                       # number of overall hits
system.cpu1.dcache.overall_misses::total      7506161                       # number of overall misses
system.cpu1.dcache.overall_accesses::total   1810264382                       # number of overall (read+write) accesses
system.cpu1.dcache.overall_miss_rate::total     0.004146                       # miss rate for overall accesses
system.cpu1.icache.overall_hits::total     6506988623                       # number of overall hits
system.cpu1.icache.overall_misses::total      1052617                       # number of overall misses
system.cpu1.icache.overall_accesses::total   6508041240                       # number of overall (read+write) accesses
system.cpu1.icache.overall_miss_rate::total     0.000162                       # miss rate for overall accesses
system.cpu2.dcache.overall_hits::total     1884799315                       # number of overall hits
system.cpu2.dcache.overall_misses::total      6545313                       # number of overall misses
system.cpu2.dcache.overall_accesses::total   1891344628                       # number of overall (read+write) accesses
system.cpu2.dcache.overall_miss_rate::total     0.003461                       # miss rate for overall accesses
system.cpu2.icache.overall_hits::total     6514934070                       # number of overall hits
system.cpu2.icache.overall_misses::total       957137                       # number of overall misses
system.cpu2.icache.overall_accesses::total   6515891207                       # number of overall (read+write) accesses
system.cpu2.icache.overall_miss_rate::total     0.000147                       # miss rate for overall accesses
system.cpu3.dcache.overall_hits::total     1813914120                       # number of overall hits
system.cpu3.dcache.overall_misses::total      7372547                       # number of overall misses
system.cpu3.dcache.overall_accesses::total   1821286667                       # number of overall (read+write) accesses
system.cpu3.dcache.overall_miss_rate::total     0.004048                       # miss rate for overall accesses
system.cpu3.icache.overall_hits::total     6451186608                       # number of overall hits
system.cpu3.icache.overall_misses::total       984577                       # number of overall misses
system.cpu3.icache.overall_accesses::total   6452171185                       # number of overall (read+write) accesses
system.cpu3.icache.overall_miss_rate::total     0.000153                       # miss rate for overall accesses
system.l2.overall_hits::total                31234746                       # number of overall hits
system.l2.overall_misses::total                 72512                       # number of overall misses
system.l2.overall_accesses::total            31307258                       # number of overall (read+write) accesses
system.l2.overall_miss_rate::total           0.002316                       # miss rate for overall accesses
---------- End Simulation Statistics   ----------
---------- Begin Simulation Statistics ----------
system.cpu0.dcache.overall_hits::total        1845404                       # number of overall hits
system.cpu0.dcache.overall_misses::total        12153                       # number of overall misses
system.cpu0.dcache.overall_accesses::total      1857557                       # number of overall (read+write) accesses
system.cpu0.dcache.overall_miss_rate::total     0.006542                       # miss rate for overall accesses
system.cpu0.icache.overall_hits::total        6191208                       # number of overall hits
system.cpu0.icache.overall_misses::total         4718                       # number of overall misses
system.cpu0.icache.overall_accesses::total      6195926                       # number of overall (read+write) accesses
system.cpu0.icache.overall_miss_rate::total     0.000761                       # miss rate for overall accesses
system.cpu1.dcache.overall_hits::total           2021                       # number of overall hits
system.cpu1.dcache.overall_misses::total           59                       # number of overall misses
system.cpu1.dcache.overall_accesses::total         2080                       # number of overall (read+write) accesses
system.cpu1.dcache.overall_miss_rate::total     0.028365                       # miss rate for overall accesses
system.cpu1.icache.overall_hits::total           5929                       # number of overall hits
system.cpu1.icache.overall_misses::total          119                       # number of overall misses
system.cpu1.icache.overall_accesses::total         6048                       # number of overall (read+write) accesses
system.cpu1.icache.overall_miss_rate::total     0.019676                       # miss rate for overall accesses
system.cpu2.dcache.overall_hits::total         366963                       # number of overall hits
system.cpu2.dcache.overall_misses::total         8732                       # number of overall misses
system.cpu2.dcache.overall_accesses::total       375695                       # number of overall (read+write) accesses
system.cpu2.dcache.overall_miss_rate::total     0.023242                       # miss rate for overall accesses
system.cpu2.icache.overall_hits::total        1228447                       # number of overall hits
system.cpu2.icache.overall_misses::total        14832                       # number of overall misses
system.cpu2.icache.overall_accesses::total      1243279                       # number of overall (read+write) accesses
system.cpu2.icache.overall_miss_rate::total     0.011930                       # miss rate for overall accesses
system.cpu3.dcache.overall_hits::total          37359                       # number of overall hits
system.cpu3.dcache.overall_misses::total         1824                       # number of overall misses
system.cpu3.dcache.overall_accesses::total        39183                       # number of overall (read+write) accesses
system.cpu3.dcache.overall_miss_rate::total     0.046551                       # miss rate for overall accesses
system.cpu3.icache.overall_hits::total         140018                       # number of overall hits
system.cpu3.icache.overall_misses::total         1378                       # number of overall misses
system.cpu3.icache.overall_accesses::total       141396                       # number of overall (read+write) accesses
system.cpu3.icache.overall_miss_rate::total     0.009746                       # miss rate for overall accesses
system.l2.overall_hits::total                   26493                       # number of overall hits
system.l2.overall_misses::total                 15536                       # number of overall misses
system.l2.overall_accesses::total               42029                       # number of overall (read+write) accesses
system.l2.overall_miss_rate::total           0.369650                       # miss rate for overall accesses
---------- End Simulation Statistics   ----------
