---------- Begin Simulation Statistics ----------
system.cpu0.dcache.overall_hits::total       14785380                       # number of overall hits
system.cpu0.dcache.overall_misses::total      2542778                       # number of overall misses
system.cpu0.dcache.overall_accesses::total     17328158                       # number of overall (read+write) accesses
system.cpu0.dcache.overall_miss_rate::total     0.146743                       # miss rate for overall accesses
system.cpu0.icache.overall_hits::total       72132891                       # number of overall hits
system.cpu0.icache.overall_misses::total       498463                       # number of overall misses
system.cpu0.icache.overall_accesses::total     72631354                       # number of overall (read+write) accesses
system.cpu0.icache.overall_miss_rate::total     0.006863                       # miss rate for overall accesses
system.cpu1.dcache.overall_hits::total        1648003                       # number of overall hits
system.cpu1.dcache.overall_misses::total        35171                       # number of overall misses
system.cpu1.dcache.overall_accesses::total      1683174                       # number of overall (read+write) accesses
system.cpu1.dcache.overall_miss_rate::total     0.020896                       # miss rate for overall accesses
system.cpu1.icache.overall_hits::total        5021693                       # number of overall hits
system.cpu1.icache.overall_misses::total        37801                       # number of overall misses
system.cpu1.icache.overall_accesses::total      5059494                       # number of overall (read+write) accesses
system.cpu1.icache.overall_miss_rate::total     0.007471                       # miss rate for overall accesses
system.cpu2.dcache.overall_hits::total        7482335                       # number of overall hits
system.cpu2.dcache.overall_misses::total       299861                       # number of overall misses
system.cpu2.dcache.overall_accesses::total      7782196                       # number of overall (read+write) accesses
system.cpu2.dcache.overall_miss_rate::total     0.038532                       # miss rate for overall accesses
system.cpu2.icache.overall_hits::total       24783168                       # number of overall hits
system.cpu2.icache.overall_misses::total       404984                       # number of overall misses
system.cpu2.icache.overall_accesses::total     25188152                       # number of overall (read+write) accesses
system.cpu2.icache.overall_miss_rate::total     0.016078                       # miss rate for overall accesses
system.cpu3.dcache.overall_hits::total        4524916                       # number of overall hits
system.cpu3.dcache.overall_misses::total       203668                       # number of overall misses
system.cpu3.dcache.overall_accesses::total      4728584                       # number of overall (read+write) accesses
system.cpu3.dcache.overall_miss_rate::total     0.043072                       # miss rate for overall accesses
system.cpu3.icache.overall_hits::total       13948558                       # number of overall hits
system.cpu3.icache.overall_misses::total       334267                       # number of overall misses
system.cpu3.icache.overall_accesses::total     14282825                       # number of overall (read+write) accesses
system.cpu3.icache.overall_miss_rate::total     0.023403                       # miss rate for overall accesses
system.l2.overall_hits::total                 2618351                       # number of overall hits
system.l2.overall_misses::total               1474215                       # number of overall misses
system.l2.overall_accesses::total             4092566                       # number of overall (read+write) accesses
system.l2.overall_miss_rate::total           0.360218                       # miss rate for overall accesses
---------- End Simulation Statistics   ----------
---------- Begin Simulation Statistics ----------
system.cpu0.dcache.overall_hits::total       52240831                       # number of overall hits
system.cpu0.dcache.overall_misses::total      1205579                       # number of overall misses
system.cpu0.dcache.overall_accesses::total     53446410                       # number of overall (read+write) accesses
system.cpu0.dcache.overall_miss_rate::total     0.022557                       # miss rate for overall accesses
system.cpu0.icache.overall_hits::total      233609110                       # number of overall hits
system.cpu0.icache.overall_misses::total       217407                       # number of overall misses
system.cpu0.icache.overall_accesses::total    233826517                       # number of overall (read+write) accesses
system.cpu0.icache.overall_miss_rate::total     0.000930                       # miss rate for overall accesses
system.cpu1.dcache.overall_hits::total       55286663                       # number of overall hits
system.cpu1.dcache.overall_misses::total      1254509                       # number of overall misses
system.cpu1.dcache.overall_accesses::total     56541172                       # number of overall (read+write) accesses
system.cpu1.dcache.overall_miss_rate::total     0.022188                       # miss rate for overall accesses
system.cpu1.icache.overall_hits::total      250806144                       # number of overall hits
system.cpu1.icache.overall_misses::total       223846                       # number of overall misses
system.cpu1.icache.overall_accesses::total    251029990                       # number of overall (read+write) accesses
system.cpu1.icache.overall_miss_rate::total     0.000892                       # miss rate for overall accesses
system.cpu2.dcache.overall_hits::total       98460498                       # number of overall hits
system.cpu2.dcache.overall_misses::total      2237253                       # number of overall misses
system.cpu2.dcache.overall_accesses::total    100697751                       # number of overall (read+write) accesses
system.cpu2.dcache.overall_miss_rate::total     0.022218                       # miss rate for overall accesses
system.cpu2.icache.overall_hits::total      412272927                       # number of overall hits
system.cpu2.icache.overall_misses::total       696913                       # number of overall misses
system.cpu2.icache.overall_accesses::total    412969840                       # number of overall (read+write) accesses
system.cpu2.icache.overall_miss_rate::total     0.001688                       # miss rate for overall accesses
system.cpu3.dcache.overall_hits::total       54777643                       # number of overall hits
system.cpu3.dcache.overall_misses::total      1249313                       # number of overall misses
system.cpu3.dcache.overall_accesses::total     56026956                       # number of overall (read+write) accesses
system.cpu3.dcache.overall_miss_rate::total     0.022298                       # miss rate for overall accesses
system.cpu3.icache.overall_hits::total      244451527                       # number of overall hits
system.cpu3.icache.overall_misses::total       238017                       # number of overall misses
system.cpu3.icache.overall_accesses::total    244689544                       # number of overall (read+write) accesses
system.cpu3.icache.overall_miss_rate::total     0.000973                       # miss rate for overall accesses
system.l2.overall_hits::total                 6254926                       # number of overall hits
system.l2.overall_misses::total                881729                       # number of overall misses
system.l2.overall_accesses::total             7136655                       # number of overall (read+write) accesses
system.l2.overall_miss_rate::total           0.123549                       # miss rate for overall accesses
---------- End Simulation Statistics   ----------
---------- Begin Simulation Statistics ----------
system.cpu0.dcache.overall_hits::total      785004297                       # number of overall hits
system.cpu0.dcache.overall_misses::total     22940064                       # number of overall misses
system.cpu0.dcache.overall_accesses::total    807944361                       # number of overall (read+write) accesses
system.cpu0.dcache.overall_miss_rate::total     0.028393                       # miss rate for overall accesses
system.cpu0.icache.overall_hits::total     3299055426                       # number of overall hits
system.cpu0.icache.overall_misses::total      3860521                       # number of overall misses
system.cpu0.icache.overall_accesses::total   3302915947                       # number of overall (read+write) accesses
system.cpu0.icache.overall_miss_rate::total     0.001169                       # miss rate for overall accesses
system.cpu1.dcache.overall_hits::total      790150941                       # number of overall hits
system.cpu1.dcache.overall_misses::total     23091790                       # number of overall misses
system.cpu1.dcache.overall_accesses::total    813242731                       # number of overall (read+write) accesses
system.cpu1.dcache.overall_miss_rate::total     0.028395                       # miss rate for overall accesses
system.cpu1.icache.overall_hits::total     3321853341                       # number of overall hits
system.cpu1.icache.overall_misses::total      3809589                       # number of overall misses
system.cpu1.icache.overall_accesses::total   3325662930                       # number of overall (read+write) accesses
system.cpu1.icache.overall_miss_rate::total     0.001146                       # miss rate for overall accesses
system.cpu2.dcache.overall_hits::total      943050421                       # number of overall hits
system.cpu2.dcache.overall_misses::total     25011935                       # number of overall misses
system.cpu2.dcache.overall_accesses::total    968062356                       # number of overall (read+write) accesses
system.cpu2.dcache.overall_miss_rate::total     0.025837                       # miss rate for overall accesses
system.cpu2.icache.overall_hits::total     3975203794                       # number of overall hits
system.cpu2.icache.overall_misses::total      4187684                       # number of overall misses
system.cpu2.icache.overall_accesses::total   3979391478                       # number of overall (read+write) accesses
system.cpu2.icache.overall_miss_rate::total     0.001052                       # miss rate for overall accesses
system.cpu3.dcache.overall_hits::total      790164007                       # number of overall hits
system.cpu3.dcache.overall_misses::total     23086916                       # number of overall misses
system.cpu3.dcache.overall_accesses::total    813250923                       # number of overall (read+write) accesses
system.cpu3.dcache.overall_miss_rate::total     0.028388                       # miss rate for overall accesses
system.cpu3.icache.overall_hits::total     3321728537                       # number of overall hits
system.cpu3.icache.overall_misses::total      3805793                       # number of overall misses
system.cpu3.icache.overall_accesses::total   3325534330                       # number of overall (read+write) accesses
system.cpu3.icache.overall_miss_rate::total     0.001144                       # miss rate for overall accesses
system.l2.overall_hits::total               105697729                       # number of overall hits
system.l2.overall_misses::total               2875331                       # number of overall misses
system.l2.overall_accesses::total           108573060                       # number of overall (read+write) accesses
system.l2.overall_miss_rate::total           0.026483                       # miss rate for overall accesses
---------- End Simulation Statistics   ----------
---------- Begin Simulation Statistics ----------
system.cpu0.dcache.overall_hits::total         200553                       # number of overall hits
system.cpu0.dcache.overall_misses::total        11689                       # number of overall misses
system.cpu0.dcache.overall_accesses::total       212242                       # number of overall (read+write) accesses
system.cpu0.dcache.overall_miss_rate::total     0.055074                       # miss rate for overall accesses
system.cpu0.icache.overall_hits::total         594438                       # number of overall hits
system.cpu0.icache.overall_misses::total         4755                       # number of overall misses
system.cpu0.icache.overall_accesses::total       599193                       # number of overall (read+write) accesses
system.cpu0.icache.overall_miss_rate::total     0.007936                       # miss rate for overall accesses
system.cpu1.dcache.overall_hits::total           3961                       # number of overall hits
system.cpu1.dcache.overall_misses::total          226                       # number of overall misses
system.cpu1.dcache.overall_accesses::total         4187                       # number of overall (read+write) accesses
system.cpu1.dcache.overall_miss_rate::total     0.053977                       # miss rate for overall accesses
system.cpu1.icache.overall_hits::total          15338                       # number of overall hits
system.cpu1.icache.overall_misses::total           58                       # number of overall misses
system.cpu1.icache.overall_accesses::total        15396                       # number of overall (read+write) accesses
system.cpu1.icache.overall_miss_rate::total     0.003767                       # miss rate for overall accesses
system.cpu2.dcache.overall_hits::total         845733                       # number of overall hits
system.cpu2.dcache.overall_misses::total        22457                       # number of overall misses
system.cpu2.dcache.overall_accesses::total       868190                       # number of overall (read+write) accesses
system.cpu2.dcache.overall_miss_rate::total     0.025866                       # miss rate for overall accesses
system.cpu2.icache.overall_hits::total        2892188                       # number of overall hits
system.cpu2.icache.overall_misses::total         5866                       # number of overall misses
system.cpu2.icache.overall_accesses::total      2898054                       # number of overall (read+write) accesses
system.cpu2.icache.overall_miss_rate::total     0.002024                       # miss rate for overall accesses
system.cpu3.dcache.overall_hits::total          36975                       # number of overall hits
system.cpu3.dcache.overall_misses::total         1990                       # number of overall misses
system.cpu3.dcache.overall_accesses::total        38965                       # number of overall (read+write) accesses
system.cpu3.dcache.overall_miss_rate::total     0.051071                       # miss rate for overall accesses
system.cpu3.icache.overall_hits::total         139926                       # number of overall hits
system.cpu3.icache.overall_misses::total         1475                       # number of overall misses
system.cpu3.icache.overall_accesses::total       141401                       # number of overall (read+write) accesses
system.cpu3.icache.overall_miss_rate::total     0.010431                       # miss rate for overall accesses
system.l2.overall_hits::total                   20417                       # number of overall hits
system.l2.overall_misses::total                 27635                       # number of overall misses
system.l2.overall_accesses::total               48052                       # number of overall (read+write) accesses
system.l2.overall_miss_rate::total           0.575106                       # miss rate for overall accesses
---------- End Simulation Statistics   ----------
