---------- Begin Simulation Statistics ----------
system.cpu0.dcache.overall_hits::total       14767840                       # number of overall hits
system.cpu0.dcache.overall_misses::total      2560318                       # number of overall misses
system.cpu0.dcache.overall_accesses::total     17328158                       # number of overall (read+write) accesses
system.cpu0.dcache.overall_miss_rate::total     0.147755                       # miss rate for overall accesses
system.cpu0.icache.overall_hits::total       72132988                       # number of overall hits
system.cpu0.icache.overall_misses::total       498366                       # number of overall misses
system.cpu0.icache.overall_accesses::total     72631354                       # number of overall (read+write) accesses
system.cpu0.icache.overall_miss_rate::total     0.006862                       # miss rate for overall accesses
system.cpu1.dcache.overall_hits::total        1647956                       # number of overall hits
system.cpu1.dcache.overall_misses::total        35218                       # number of overall misses
system.cpu1.dcache.overall_accesses::total      1683174                       # number of overall (read+write) accesses
system.cpu1.dcache.overall_miss_rate::total     0.020924                       # miss rate for overall accesses
system.cpu1.icache.overall_hits::total        5021693                       # number of overall hits
system.cpu1.icache.overall_misses::total        37801                       # number of overall misses
system.cpu1.icache.overall_accesses::total      5059494                       # number of overall (read+write) accesses
system.cpu1.icache.overall_miss_rate::total     0.007471                       # miss rate for overall accesses
system.cpu2.dcache.overall_hits::total        7482770                       # number of overall hits
system.cpu2.dcache.overall_misses::total       300226                       # number of overall misses
system.cpu2.dcache.overall_accesses::total      7782996                       # number of overall (read+write) accesses
system.cpu2.dcache.overall_miss_rate::total     0.038575                       # miss rate for overall accesses
system.cpu2.icache.overall_hits::total       24784471                       # number of overall hits
system.cpu2.icache.overall_misses::total       405630                       # number of overall misses
system.cpu2.icache.overall_accesses::total     25190101                       # number of overall (read+write) accesses
system.cpu2.icache.overall_miss_rate::total     0.016103                       # miss rate for overall accesses
system.cpu3.dcache.overall_hits::total        4519157                       # number of overall hits
system.cpu3.dcache.overall_misses::total       209436                       # number of overall misses
system.cpu3.dcache.overall_accesses::total      4728593                       # number of overall (read+write) accesses
system.cpu3.dcache.overall_miss_rate::total     0.044291                       # miss rate for overall accesses
system.cpu3.icache.overall_hits::total       13948738                       # number of overall hits
system.cpu3.icache.overall_misses::total       334117                       # number of overall misses
system.cpu3.icache.overall_accesses::total     14282855                       # number of overall (read+write) accesses
system.cpu3.icache.overall_miss_rate::total     0.023393                       # miss rate for overall accesses
system.l2.overall_hits::total                 2593478                       # number of overall hits
system.l2.overall_misses::total               1521928                       # number of overall misses
system.l2.overall_accesses::total             4115406                       # number of overall (read+write) accesses
system.l2.overall_miss_rate::total           0.369812                       # miss rate for overall accesses
---------- End Simulation Statistics   ----------
---------- Begin Simulation Statistics ----------
system.cpu0.dcache.overall_hits::total         397964                       # number of overall hits
system.cpu0.dcache.overall_misses::total         6851                       # number of overall misses
system.cpu0.dcache.overall_accesses::total       404815                       # number of overall (read+write) accesses
system.cpu0.dcache.overall_miss_rate::total     0.016924                       # miss rate for overall accesses
system.cpu0.icache.overall_hits::total        1222484                       # number of overall hits
system.cpu0.icache.overall_misses::total         6839                       # number of overall misses
system.cpu0.icache.overall_accesses::total      1229323                       # number of overall (read+write) accesses
system.cpu0.icache.overall_miss_rate::total     0.005563                       # miss rate for overall accesses
system.cpu1.dcache.overall_hits::total         227855                       # number of overall hits
system.cpu1.dcache.overall_misses::total         1921                       # number of overall misses
system.cpu1.dcache.overall_accesses::total       229776                       # number of overall (read+write) accesses
system.cpu1.dcache.overall_miss_rate::total     0.008360                       # miss rate for overall accesses
system.cpu1.icache.overall_hits::total         690614                       # number of overall hits
system.cpu1.icache.overall_misses::total         3166                       # number of overall misses
system.cpu1.icache.overall_accesses::total       693780                       # number of overall (read+write) accesses
system.cpu1.icache.overall_miss_rate::total     0.004563                       # miss rate for overall accesses
system.cpu2.dcache.overall_hits::total      237281579                       # number of overall hits
system.cpu2.dcache.overall_misses::total       462297                       # number of overall misses
system.cpu2.dcache.overall_accesses::total    237743876                       # number of overall (read+write) accesses
system.cpu2.dcache.overall_miss_rate::total     0.001945                       # miss rate for overall accesses
system.cpu2.icache.overall_hits::total      842552543                       # number of overall hits
system.cpu2.icache.overall_misses::total      2258495                       # number of overall misses
system.cpu2.icache.overall_accesses::total    844811038                       # number of overall (read+write) accesses
system.cpu2.icache.overall_miss_rate::total     0.002673                       # miss rate for overall accesses
system.cpu3.dcache.overall_hits::total         318767                       # number of overall hits
system.cpu3.dcache.overall_misses::total         6776                       # number of overall misses
system.cpu3.dcache.overall_accesses::total       325543                       # number of overall (read+write) accesses
system.cpu3.dcache.overall_miss_rate::total     0.020814                       # miss rate for overall accesses
system.cpu3.icache.overall_hits::total         948782                       # number of overall hits
system.cpu3.icache.overall_misses::total         6050                       # number of overall misses
system.cpu3.icache.overall_accesses::total       954832                       # number of overall (read+write) accesses
system.cpu3.icache.overall_miss_rate::total     0.006336                       # miss rate for overall accesses
system.l2.overall_hits::total                 2567675                       # number of overall hits
system.l2.overall_misses::total                176342                       # number of overall misses
system.l2.overall_accesses::total             2744017                       # number of overall (read+write) accesses
system.l2.overall_miss_rate::total           0.064264                       # miss rate for overall accesses
---------- End Simulation Statistics   ----------
---------- Begin Simulation Statistics ----------
system.cpu0.dcache.overall_hits::total     1070687170                       # number of overall hits
system.cpu0.dcache.overall_misses::total      6572603                       # number of overall misses
system.cpu0.dcache.overall_accesses::total   1077259773                       # number of overall (read+write) accesses
system.cpu0.dcache.overall_miss_rate::total     0.006101                       # miss rate for overall accesses
system.cpu0.icache.overall_hits::total     3382456352                       # number of overall hits
system.cpu0.icache.overall_misses::total       103696                       # number of overall misses
system.cpu0.icache.overall_accesses::total   3382560048                       # number of overall (read+write) accesses
system.cpu0.icache.overall_miss_rate::total     0.000031                       # miss rate for overall accesses
system.cpu1.dcache.overall_hits::total     1070254292                       # number of overall hits
system.cpu1.dcache.overall_misses::total      6561959                       # number of overall misses
system.cpu1.dcache.overall_accesses::total   1076816251                       # number of overall (read+write) accesses
system.cpu1.dcache.overall_miss_rate::total     0.006094                       # miss rate for overall accesses
system.cpu1.icache.overall_hits::total     3381183813                       # number of overall hits
system.cpu1.icache.overall_misses::total        62772                       # number of overall misses
system.cpu1.icache.overall_accesses::total   3381246585                       # number of overall (read+write) accesses
system.cpu1.icache.overall_miss_rate::total     0.000019                       # miss rate for overall accesses
system.cpu2.dcache.overall_hits::total     1090091541                       # number of overall hits
system.cpu2.dcache.overall_misses::total      6698864                       # number of overall misses
system.cpu2.dcache.overall_accesses::total   1096790405                       # number of overall (read+write) accesses
system.cpu2.dcache.overall_miss_rate::total     0.006108                       # miss rate for overall accesses
system.cpu2.icache.overall_hits::total     3443764253                       # number of overall hits
system.cpu2.icache.overall_misses::total        95224                       # number of overall misses
system.cpu2.icache.overall_accesses::total   3443859477                       # number of overall (read+write) accesses
system.cpu2.icache.overall_miss_rate::total     0.000028                       # miss rate for overall accesses
system.cpu3.dcache.overall_hits::total     1092906475                       # number of overall hits
system.cpu3.dcache.overall_misses::total      6709018                       # number of overall misses
system.cpu3.dcache.overall_accesses::total   1099615493                       # number of overall (read+write) accesses
system.cpu3.dcache.overall_miss_rate::total     0.006101                       # miss rate for overall accesses
system.cpu3.icache.overall_hits::total     3453135709                       # number of overall hits
system.cpu3.icache.overall_misses::total        75229                       # number of overall misses
system.cpu3.icache.overall_accesses::total   3453210938                       # number of overall (read+write) accesses
system.cpu3.icache.overall_miss_rate::total     0.000022                       # miss rate for overall accesses
system.l2.overall_hits::total                26739344                       # number of overall hits
system.l2.overall_misses::total                113611                       # number of overall misses
system.l2.overall_accesses::total            26852955                       # number of overall (read+write) accesses
system.l2.overall_miss_rate::total           0.004231                       # miss rate for overall accesses
---------- End Simulation Statistics   ----------
---------- Begin Simulation Statistics ----------
system.cpu0.dcache.overall_hits::total         327281                       # number of overall hits
system.cpu0.dcache.overall_misses::total        12403                       # number of overall misses
system.cpu0.dcache.overall_accesses::total       339684                       # number of overall (read+write) accesses
system.cpu0.dcache.overall_miss_rate::total     0.036513                       # miss rate for overall accesses
system.cpu0.icache.overall_hits::total         959210                       # number of overall hits
system.cpu0.icache.overall_misses::total         6186                       # number of overall misses
system.cpu0.icache.overall_accesses::total       965396                       # number of overall (read+write) accesses
system.cpu0.icache.overall_miss_rate::total     0.006408                       # miss rate for overall accesses
system.cpu1.dcache.overall_hits::total          84643                       # number of overall hits
system.cpu1.dcache.overall_misses::total          328                       # number of overall misses
system.cpu1.dcache.overall_accesses::total        84971                       # number of overall (read+write) accesses
system.cpu1.dcache.overall_miss_rate::total     0.003860                       # miss rate for overall accesses
system.cpu1.icache.overall_hits::total         244920                       # number of overall hits
system.cpu1.icache.overall_misses::total          564                       # number of overall misses
system.cpu1.icache.overall_accesses::total       245484                       # number of overall (read+write) accesses
system.cpu1.icache.overall_miss_rate::total     0.002298                       # miss rate for overall accesses
system.cpu2.dcache.overall_hits::total       83704241                       # number of overall hits
system.cpu2.dcache.overall_misses::total        63984                       # number of overall misses
system.cpu2.dcache.overall_accesses::total     83768225                       # number of overall (read+write) accesses
system.cpu2.dcache.overall_miss_rate::total     0.000764                       # miss rate for overall accesses
system.cpu2.icache.overall_hits::total      366635927                       # number of overall hits
system.cpu2.icache.overall_misses::total      1011063                       # number of overall misses
system.cpu2.icache.overall_accesses::total    367646990                       # number of overall (read+write) accesses
system.cpu2.icache.overall_miss_rate::total     0.002750                       # miss rate for overall accesses
system.cpu3.dcache.overall_hits::total         142948                       # number of overall hits
system.cpu3.dcache.overall_misses::total         3413                       # number of overall misses
system.cpu3.dcache.overall_accesses::total       146361                       # number of overall (read+write) accesses
system.cpu3.dcache.overall_miss_rate::total     0.023319                       # miss rate for overall accesses
system.cpu3.icache.overall_hits::total         462716                       # number of overall hits
system.cpu3.icache.overall_misses::total         4079                       # number of overall misses
system.cpu3.icache.overall_accesses::total       466795                       # number of overall (read+write) accesses
system.cpu3.icache.overall_miss_rate::total     0.008738                       # miss rate for overall accesses
system.l2.overall_hits::total                 1045272                       # number of overall hits
system.l2.overall_misses::total                 53761                       # number of overall misses
system.l2.overall_accesses::total             1099033                       # number of overall (read+write) accesses
system.l2.overall_miss_rate::total           0.048917                       # miss rate for overall accesses
---------- End Simulation Statistics   ----------
