---------- Begin Simulation Statistics ----------
system.cpu0.dcache.overall_hits::total       14784116                       # number of overall hits
system.cpu0.dcache.overall_misses::total      2544110                       # number of overall misses
system.cpu0.dcache.overall_accesses::total     17328226                       # number of overall (read+write) accesses
system.cpu0.dcache.overall_miss_rate::total     0.146819                       # miss rate for overall accesses
system.cpu0.icache.overall_hits::total       72133245                       # number of overall hits
system.cpu0.icache.overall_misses::total       498454                       # number of overall misses
system.cpu0.icache.overall_accesses::total     72631699                       # number of overall (read+write) accesses
system.cpu0.icache.overall_miss_rate::total     0.006863                       # miss rate for overall accesses
system.cpu1.dcache.overall_hits::total        1648135                       # number of overall hits
system.cpu1.dcache.overall_misses::total        35039                       # number of overall misses
system.cpu1.dcache.overall_accesses::total      1683174                       # number of overall (read+write) accesses
system.cpu1.dcache.overall_miss_rate::total     0.020817                       # miss rate for overall accesses
system.cpu1.icache.overall_hits::total        5021692                       # number of overall hits
system.cpu1.icache.overall_misses::total        37802                       # number of overall misses
system.cpu1.icache.overall_accesses::total      5059494                       # number of overall (read+write) accesses
system.cpu1.icache.overall_miss_rate::total     0.007471                       # miss rate for overall accesses
system.cpu2.dcache.overall_hits::total        7499383                       # number of overall hits
system.cpu2.dcache.overall_misses::total       299165                       # number of overall misses
system.cpu2.dcache.overall_accesses::total      7798548                       # number of overall (read+write) accesses
system.cpu2.dcache.overall_miss_rate::total     0.038362                       # miss rate for overall accesses
system.cpu2.icache.overall_hits::total       24834738                       # number of overall hits
system.cpu2.icache.overall_misses::total       405496                       # number of overall misses
system.cpu2.icache.overall_accesses::total     25240234                       # number of overall (read+write) accesses
system.cpu2.icache.overall_miss_rate::total     0.016065                       # miss rate for overall accesses
system.cpu3.dcache.overall_hits::total        4526492                       # number of overall hits
system.cpu3.dcache.overall_misses::total       202102                       # number of overall misses
system.cpu3.dcache.overall_accesses::total      4728594                       # number of overall (read+write) accesses
system.cpu3.dcache.overall_miss_rate::total     0.042740                       # miss rate for overall accesses
system.cpu3.icache.overall_hits::total       13948618                       # number of overall hits
system.cpu3.icache.overall_misses::total       334240                       # number of overall misses
system.cpu3.icache.overall_accesses::total     14282858                       # number of overall (read+write) accesses
system.cpu3.icache.overall_miss_rate::total     0.023401                       # miss rate for overall accesses
system.l2.overall_hits::total                 2623168                       # number of overall hits
system.l2.overall_misses::total               1468622                       # number of overall misses
system.l2.overall_accesses::total             4091790                       # number of overall (read+write) accesses
system.l2.overall_miss_rate::total           0.358919                       # miss rate for overall accesses
---------- End Simulation Statistics   ----------
---------- Begin Simulation Statistics ----------
system.cpu0.dcache.overall_hits::total          75216                       # number of overall hits
system.cpu0.dcache.overall_misses::total         2838                       # number of overall misses
system.cpu0.dcache.overall_accesses::total        78054                       # number of overall (read+write) accesses
system.cpu0.dcache.overall_miss_rate::total     0.036359                       # miss rate for overall accesses
system.cpu0.icache.overall_hits::total         267447                       # number of overall hits
system.cpu0.icache.overall_misses::total         2796                       # number of overall misses
system.cpu0.icache.overall_accesses::total       270243                       # number of overall (read+write) accesses
system.cpu0.icache.overall_miss_rate::total     0.010346                       # miss rate for overall accesses
system.cpu1.dcache.overall_hits::total           1689                       # number of overall hits
system.cpu1.dcache.overall_misses::total           66                       # number of overall misses
system.cpu1.dcache.overall_accesses::total         1755                       # number of overall (read+write) accesses
system.cpu1.dcache.overall_miss_rate::total     0.037607                       # miss rate for overall accesses
system.cpu1.icache.overall_hits::total           5108                       # number of overall hits
system.cpu1.icache.overall_misses::total           98                       # number of overall misses
system.cpu1.icache.overall_accesses::total         5206                       # number of overall (read+write) accesses
system.cpu1.icache.overall_miss_rate::total     0.018824                       # miss rate for overall accesses
system.cpu2.dcache.overall_hits::total        1064103                       # number of overall hits
system.cpu2.dcache.overall_misses::total        26191                       # number of overall misses
system.cpu2.dcache.overall_accesses::total      1090294                       # number of overall (read+write) accesses
system.cpu2.dcache.overall_miss_rate::total     0.024022                       # miss rate for overall accesses
system.cpu2.icache.overall_hits::total        3924825                       # number of overall hits
system.cpu2.icache.overall_misses::total        82355                       # number of overall misses
system.cpu2.icache.overall_accesses::total      4007180                       # number of overall (read+write) accesses
system.cpu2.icache.overall_miss_rate::total     0.020552                       # miss rate for overall accesses
system.cpu3.dcache.overall_hits::total          88511                       # number of overall hits
system.cpu3.dcache.overall_misses::total         4807                       # number of overall misses
system.cpu3.dcache.overall_accesses::total        93318                       # number of overall (read+write) accesses
system.cpu3.dcache.overall_miss_rate::total     0.051512                       # miss rate for overall accesses
system.cpu3.icache.overall_hits::total         251523                       # number of overall hits
system.cpu3.icache.overall_misses::total         2875                       # number of overall misses
system.cpu3.icache.overall_accesses::total       254398                       # number of overall (read+write) accesses
system.cpu3.icache.overall_miss_rate::total     0.011301                       # miss rate for overall accesses
system.l2.overall_hits::total                  104698                       # number of overall hits
system.l2.overall_misses::total                 16042                       # number of overall misses
system.l2.overall_accesses::total              120740                       # number of overall (read+write) accesses
system.l2.overall_miss_rate::total           0.132864                       # miss rate for overall accesses
---------- End Simulation Statistics   ----------
---------- Begin Simulation Statistics ----------
system.cpu0.dcache.overall_hits::total     2327418713                       # number of overall hits
system.cpu0.dcache.overall_misses::total     33772135                       # number of overall misses
system.cpu0.dcache.overall_accesses::total   2361190848                       # number of overall (read+write) accesses
system.cpu0.dcache.overall_miss_rate::total     0.014303                       # miss rate for overall accesses
system.cpu0.icache.overall_hits::total    11032542144                       # number of overall hits
system.cpu0.icache.overall_misses::total      2591443                       # number of overall misses
system.cpu0.icache.overall_accesses::total  11035133587                       # number of overall (read+write) accesses
system.cpu0.icache.overall_miss_rate::total     0.000235                       # miss rate for overall accesses
system.cpu1.dcache.overall_hits::total     2333832312                       # number of overall hits
system.cpu1.dcache.overall_misses::total     33809229                       # number of overall misses
system.cpu1.dcache.overall_accesses::total   2367641541                       # number of overall (read+write) accesses
system.cpu1.dcache.overall_miss_rate::total     0.014280                       # miss rate for overall accesses
system.cpu1.icache.overall_hits::total    11054204032                       # number of overall hits
system.cpu1.icache.overall_misses::total      2414788                       # number of overall misses
system.cpu1.icache.overall_accesses::total  11056618820                       # number of overall (read+write) accesses
system.cpu1.icache.overall_miss_rate::total     0.000218                       # miss rate for overall accesses
system.cpu2.dcache.overall_hits::total     2372544523                       # number of overall hits
system.cpu2.dcache.overall_misses::total     35136191                       # number of overall misses
system.cpu2.dcache.overall_accesses::total   2407680714                       # number of overall (read+write) accesses
system.cpu2.dcache.overall_miss_rate::total     0.014593                       # miss rate for overall accesses
system.cpu2.icache.overall_hits::total    11193347268                       # number of overall hits
system.cpu2.icache.overall_misses::total      3100395                       # number of overall misses
system.cpu2.icache.overall_accesses::total  11196447663                       # number of overall (read+write) accesses
system.cpu2.icache.overall_miss_rate::total     0.000277                       # miss rate for overall accesses
system.cpu3.dcache.overall_hits::total     2379405067                       # number of overall hits
system.cpu3.dcache.overall_misses::total     34551420                       # number of overall misses
system.cpu3.dcache.overall_accesses::total   2413956487                       # number of overall (read+write) accesses
system.cpu3.dcache.overall_miss_rate::total     0.014313                       # miss rate for overall accesses
system.cpu3.icache.overall_hits::total    11279709949                       # number of overall hits
system.cpu3.icache.overall_misses::total      2682777                       # number of overall misses
system.cpu3.icache.overall_accesses::total  11282392726                       # number of overall (read+write) accesses
system.cpu3.icache.overall_miss_rate::total     0.000238                       # miss rate for overall accesses
system.l2.overall_hits::total                57105136                       # number of overall hits
system.l2.overall_misses::total              90020196                       # number of overall misses
system.l2.overall_accesses::total           147125332                       # number of overall (read+write) accesses
system.l2.overall_miss_rate::total           0.611861                       # miss rate for overall accesses
---------- End Simulation Statistics   ----------
---------- Begin Simulation Statistics ----------
system.cpu0.dcache.overall_hits::total          77158                       # number of overall hits
system.cpu0.dcache.overall_misses::total         2153                       # number of overall misses
system.cpu0.dcache.overall_accesses::total        79311                       # number of overall (read+write) accesses
system.cpu0.dcache.overall_miss_rate::total     0.027146                       # miss rate for overall accesses
system.cpu0.icache.overall_hits::total         275669                       # number of overall hits
system.cpu0.icache.overall_misses::total         1552                       # number of overall misses
system.cpu0.icache.overall_accesses::total       277221                       # number of overall (read+write) accesses
system.cpu0.icache.overall_miss_rate::total     0.005598                       # miss rate for overall accesses
system.cpu1.dcache.overall_hits::total         166053                       # number of overall hits
system.cpu1.dcache.overall_misses::total        11890                       # number of overall misses
system.cpu1.dcache.overall_accesses::total       177943                       # number of overall (read+write) accesses
system.cpu1.dcache.overall_miss_rate::total     0.066819                       # miss rate for overall accesses
system.cpu1.icache.overall_hits::total         473841                       # number of overall hits
system.cpu1.icache.overall_misses::total         4542                       # number of overall misses
system.cpu1.icache.overall_accesses::total       478383                       # number of overall (read+write) accesses
system.cpu1.icache.overall_miss_rate::total     0.009494                       # miss rate for overall accesses
system.cpu2.dcache.overall_hits::total          15177                       # number of overall hits
system.cpu2.dcache.overall_misses::total          757                       # number of overall misses
system.cpu2.dcache.overall_accesses::total        15934                       # number of overall (read+write) accesses
system.cpu2.dcache.overall_miss_rate::total     0.047508                       # miss rate for overall accesses
system.cpu2.icache.overall_hits::total          46919                       # number of overall hits
system.cpu2.icache.overall_misses::total          364                       # number of overall misses
system.cpu2.icache.overall_accesses::total        47283                       # number of overall (read+write) accesses
system.cpu2.icache.overall_miss_rate::total     0.007698                       # miss rate for overall accesses
system.cpu3.dcache.overall_hits::total        1516565                       # number of overall hits
system.cpu3.dcache.overall_misses::total        60199                       # number of overall misses
system.cpu3.dcache.overall_accesses::total      1576764                       # number of overall (read+write) accesses
system.cpu3.dcache.overall_miss_rate::total     0.038179                       # miss rate for overall accesses
system.cpu3.icache.overall_hits::total        6725609                       # number of overall hits
system.cpu3.icache.overall_misses::total        10030                       # number of overall misses
system.cpu3.icache.overall_accesses::total      6735639                       # number of overall (read+write) accesses
system.cpu3.icache.overall_miss_rate::total     0.001489                       # miss rate for overall accesses
system.l2.overall_hits::total                   56079                       # number of overall hits
system.l2.overall_misses::total                 36363                       # number of overall misses
system.l2.overall_accesses::total               92442                       # number of overall (read+write) accesses
system.l2.overall_miss_rate::total           0.393360                       # miss rate for overall accesses
---------- End Simulation Statistics   ----------
