---------- Begin Simulation Statistics ----------
system.cpu0.dcache.overall_hits::total       14744904                       # number of overall hits
system.cpu0.dcache.overall_misses::total      2583322                       # number of overall misses
system.cpu0.dcache.overall_accesses::total     17328226                       # number of overall (read+write) accesses
system.cpu0.dcache.overall_miss_rate::total     0.149082                       # miss rate for overall accesses
system.cpu0.icache.overall_hits::total       72129997                       # number of overall hits
system.cpu0.icache.overall_misses::total       501702                       # number of overall misses
system.cpu0.icache.overall_accesses::total     72631699                       # number of overall (read+write) accesses
system.cpu0.icache.overall_miss_rate::total     0.006907                       # miss rate for overall accesses
system.cpu1.dcache.overall_hits::total        1648546                       # number of overall hits
system.cpu1.dcache.overall_misses::total        34628                       # number of overall misses
system.cpu1.dcache.overall_accesses::total      1683174                       # number of overall (read+write) accesses
system.cpu1.dcache.overall_miss_rate::total     0.020573                       # miss rate for overall accesses
system.cpu1.icache.overall_hits::total        5021610                       # number of overall hits
system.cpu1.icache.overall_misses::total        37884                       # number of overall misses
system.cpu1.icache.overall_accesses::total      5059494                       # number of overall (read+write) accesses
system.cpu1.icache.overall_miss_rate::total     0.007488                       # miss rate for overall accesses
system.cpu2.dcache.overall_hits::total        7500313                       # number of overall hits
system.cpu2.dcache.overall_misses::total       298235                       # number of overall misses
system.cpu2.dcache.overall_accesses::total      7798548                       # number of overall (read+write) accesses
system.cpu2.dcache.overall_miss_rate::total     0.038242                       # miss rate for overall accesses
system.cpu2.icache.overall_hits::total       24834830                       # number of overall hits
system.cpu2.icache.overall_misses::total       405404                       # number of overall misses
system.cpu2.icache.overall_accesses::total     25240234                       # number of overall (read+write) accesses
system.cpu2.icache.overall_miss_rate::total     0.016062                       # miss rate for overall accesses
system.cpu3.dcache.overall_hits::total        4530076                       # number of overall hits
system.cpu3.dcache.overall_misses::total       198518                       # number of overall misses
system.cpu3.dcache.overall_accesses::total      4728594                       # number of overall (read+write) accesses
system.cpu3.dcache.overall_miss_rate::total     0.041982                       # miss rate for overall accesses
system.cpu3.icache.overall_hits::total       13945409                       # number of overall hits
system.cpu3.icache.overall_misses::total       337449                       # number of overall misses
system.cpu3.icache.overall_accesses::total     14282858                       # number of overall (read+write) accesses
system.cpu3.icache.overall_miss_rate::total     0.023626                       # miss rate for overall accesses
system.l2.overall_hits::total                 2735770                       # number of overall hits
system.l2.overall_misses::total               1396154                       # number of overall misses
system.l2.overall_accesses::total             4131924                       # number of overall (read+write) accesses
system.l2.overall_miss_rate::total           0.337894                       # miss rate for overall accesses
---------- End Simulation Statistics   ----------
---------- Begin Simulation Statistics ----------
system.cpu0.dcache.overall_hits::total          75272                       # number of overall hits
system.cpu0.dcache.overall_misses::total         2782                       # number of overall misses
system.cpu0.dcache.overall_accesses::total        78054                       # number of overall (read+write) accesses
system.cpu0.dcache.overall_miss_rate::total     0.035642                       # miss rate for overall accesses
system.cpu0.icache.overall_hits::total         267448                       # number of overall hits
system.cpu0.icache.overall_misses::total         2795                       # number of overall misses
system.cpu0.icache.overall_accesses::total       270243                       # number of overall (read+write) accesses
system.cpu0.icache.overall_miss_rate::total     0.010343                       # miss rate for overall accesses
system.cpu1.dcache.overall_hits::total           1693                       # number of overall hits
system.cpu1.dcache.overall_misses::total           62                       # number of overall misses
system.cpu1.dcache.overall_accesses::total         1755                       # number of overall (read+write) accesses
system.cpu1.dcache.overall_miss_rate::total     0.035328                       # miss rate for overall accesses
system.cpu1.icache.overall_hits::total           5108                       # number of overall hits
system.cpu1.icache.overall_misses::total           98                       # number of overall misses
system.cpu1.icache.overall_accesses::total         5206                       # number of overall (read+write) accesses
system.cpu1.icache.overall_miss_rate::total     0.018824                       # miss rate for overall accesses
system.cpu2.dcache.overall_hits::total        1064412                       # number of overall hits
system.cpu2.dcache.overall_misses::total        25882                       # number of overall misses
system.cpu2.dcache.overall_accesses::total      1090294                       # number of overall (read+write) accesses
system.cpu2.dcache.overall_miss_rate::total     0.023739                       # miss rate for overall accesses
system.cpu2.icache.overall_hits::total        3924663                       # number of overall hits
system.cpu2.icache.overall_misses::total        82517                       # number of overall misses
system.cpu2.icache.overall_accesses::total      4007180                       # number of overall (read+write) accesses
system.cpu2.icache.overall_miss_rate::total     0.020592                       # miss rate for overall accesses
system.cpu3.dcache.overall_hits::total          88601                       # number of overall hits
system.cpu3.dcache.overall_misses::total         4717                       # number of overall misses
system.cpu3.dcache.overall_accesses::total        93318                       # number of overall (read+write) accesses
system.cpu3.dcache.overall_miss_rate::total     0.050548                       # miss rate for overall accesses
system.cpu3.icache.overall_hits::total         251515                       # number of overall hits
system.cpu3.icache.overall_misses::total         2883                       # number of overall misses
system.cpu3.icache.overall_accesses::total       254398                       # number of overall (read+write) accesses
system.cpu3.icache.overall_miss_rate::total     0.011333                       # miss rate for overall accesses
system.l2.overall_hits::total                  108050                       # number of overall hits
system.l2.overall_misses::total                 12332                       # number of overall misses
system.l2.overall_accesses::total              120382                       # number of overall (read+write) accesses
system.l2.overall_miss_rate::total           0.102441                       # miss rate for overall accesses
---------- End Simulation Statistics   ----------
---------- Begin Simulation Statistics ----------
system.cpu0.dcache.overall_hits::total     2327577838                       # number of overall hits
system.cpu0.dcache.overall_misses::total     33613010                       # number of overall misses
system.cpu0.dcache.overall_accesses::total   2361190848                       # number of overall (read+write) accesses
system.cpu0.dcache.overall_miss_rate::total     0.014236                       # miss rate for overall accesses
system.cpu0.icache.overall_hits::total    11032536274                       # number of overall hits
system.cpu0.icache.overall_misses::total      2597313                       # number of overall misses
system.cpu0.icache.overall_accesses::total  11035133587                       # number of overall (read+write) accesses
system.cpu0.icache.overall_miss_rate::total     0.000235                       # miss rate for overall accesses
system.cpu1.dcache.overall_hits::total     2333990356                       # number of overall hits
system.cpu1.dcache.overall_misses::total     33651185                       # number of overall misses
system.cpu1.dcache.overall_accesses::total   2367641541                       # number of overall (read+write) accesses
system.cpu1.dcache.overall_miss_rate::total     0.014213                       # miss rate for overall accesses
system.cpu1.icache.overall_hits::total    11054198054                       # number of overall hits
system.cpu1.icache.overall_misses::total      2420766                       # number of overall misses
system.cpu1.icache.overall_accesses::total  11056618820                       # number of overall (read+write) accesses
system.cpu1.icache.overall_miss_rate::total     0.000219                       # miss rate for overall accesses
system.cpu2.dcache.overall_hits::total     2372721838                       # number of overall hits
system.cpu2.dcache.overall_misses::total     34958876                       # number of overall misses
system.cpu2.dcache.overall_accesses::total   2407680714                       # number of overall (read+write) accesses
system.cpu2.dcache.overall_miss_rate::total     0.014520                       # miss rate for overall accesses
system.cpu2.icache.overall_hits::total    11193339344                       # number of overall hits
system.cpu2.icache.overall_misses::total      3108319                       # number of overall misses
system.cpu2.icache.overall_accesses::total  11196447663                       # number of overall (read+write) accesses
system.cpu2.icache.overall_miss_rate::total     0.000278                       # miss rate for overall accesses
system.cpu3.dcache.overall_hits::total     2379566313                       # number of overall hits
system.cpu3.dcache.overall_misses::total     34390174                       # number of overall misses
system.cpu3.dcache.overall_accesses::total   2413956487                       # number of overall (read+write) accesses
system.cpu3.dcache.overall_miss_rate::total     0.014246                       # miss rate for overall accesses
system.cpu3.icache.overall_hits::total    11279703837                       # number of overall hits
system.cpu3.icache.overall_misses::total      2688889                       # number of overall misses
system.cpu3.icache.overall_accesses::total  11282392726                       # number of overall (read+write) accesses
system.cpu3.icache.overall_miss_rate::total     0.000238                       # miss rate for overall accesses
system.l2.overall_hits::total                77986223                       # number of overall hits
system.l2.overall_misses::total              68532272                       # number of overall misses
system.l2.overall_accesses::total           146518495                       # number of overall (read+write) accesses
system.l2.overall_miss_rate::total           0.467738                       # miss rate for overall accesses
---------- End Simulation Statistics   ----------
---------- Begin Simulation Statistics ----------
system.cpu0.dcache.overall_hits::total          77183                       # number of overall hits
system.cpu0.dcache.overall_misses::total         2128                       # number of overall misses
system.cpu0.dcache.overall_accesses::total        79311                       # number of overall (read+write) accesses
system.cpu0.dcache.overall_miss_rate::total     0.026831                       # miss rate for overall accesses
system.cpu0.icache.overall_hits::total         275667                       # number of overall hits
system.cpu0.icache.overall_misses::total         1554                       # number of overall misses
system.cpu0.icache.overall_accesses::total       277221                       # number of overall (read+write) accesses
system.cpu0.icache.overall_miss_rate::total     0.005606                       # miss rate for overall accesses
system.cpu1.dcache.overall_hits::total         166189                       # number of overall hits
system.cpu1.dcache.overall_misses::total        11754                       # number of overall misses
system.cpu1.dcache.overall_accesses::total       177943                       # number of overall (read+write) accesses
system.cpu1.dcache.overall_miss_rate::total     0.066055                       # miss rate for overall accesses
system.cpu1.icache.overall_hits::total         473820                       # number of overall hits
system.cpu1.icache.overall_misses::total         4563                       # number of overall misses
system.cpu1.icache.overall_accesses::total       478383                       # number of overall (read+write) accesses
system.cpu1.icache.overall_miss_rate::total     0.009538                       # miss rate for overall accesses
system.cpu2.dcache.overall_hits::total          15181                       # number of overall hits
system.cpu2.dcache.overall_misses::total          753                       # number of overall misses
system.cpu2.dcache.overall_accesses::total        15934                       # number of overall (read+write) accesses
system.cpu2.dcache.overall_miss_rate::total     0.047257                       # miss rate for overall accesses
system.cpu2.icache.overall_hits::total          46919                       # number of overall hits
system.cpu2.icache.overall_misses::total          364                       # number of overall misses
system.cpu2.icache.overall_accesses::total        47283                       # number of overall (read+write) accesses
system.cpu2.icache.overall_miss_rate::total     0.007698                       # miss rate for overall accesses
system.cpu3.dcache.overall_hits::total        1516974                       # number of overall hits
system.cpu3.dcache.overall_misses::total        59790                       # number of overall misses
system.cpu3.dcache.overall_accesses::total      1576764                       # number of overall (read+write) accesses
system.cpu3.dcache.overall_miss_rate::total     0.037919                       # miss rate for overall accesses
system.cpu3.icache.overall_hits::total        6725601                       # number of overall hits
system.cpu3.icache.overall_misses::total        10038                       # number of overall misses
system.cpu3.icache.overall_accesses::total      6735639                       # number of overall (read+write) accesses
system.cpu3.icache.overall_miss_rate::total     0.001490                       # miss rate for overall accesses
system.l2.overall_hits::total                   64032                       # number of overall hits
system.l2.overall_misses::total                 27814                       # number of overall misses
system.l2.overall_accesses::total               91846                       # number of overall (read+write) accesses
system.l2.overall_miss_rate::total           0.302833                       # miss rate for overall accesses
---------- End Simulation Statistics   ----------
