---------- Begin Simulation Statistics ----------
system.cpu0.dcache.overall_hits::total       14767839                       # number of overall hits
system.cpu0.dcache.overall_misses::total      2560319                       # number of overall misses
system.cpu0.dcache.overall_accesses::total     17328158                       # number of overall (read+write) accesses
system.cpu0.dcache.overall_miss_rate::total     0.147755                       # miss rate for overall accesses
system.cpu0.icache.overall_hits::total       72132988                       # number of overall hits
system.cpu0.icache.overall_misses::total       498366                       # number of overall misses
system.cpu0.icache.overall_accesses::total     72631354                       # number of overall (read+write) accesses
system.cpu0.icache.overall_miss_rate::total     0.006862                       # miss rate for overall accesses
system.cpu1.dcache.overall_hits::total        1647956                       # number of overall hits
system.cpu1.dcache.overall_misses::total        35218                       # number of overall misses
system.cpu1.dcache.overall_accesses::total      1683174                       # number of overall (read+write) accesses
system.cpu1.dcache.overall_miss_rate::total     0.020924                       # miss rate for overall accesses
system.cpu1.icache.overall_hits::total        5021693                       # number of overall hits
system.cpu1.icache.overall_misses::total        37801                       # number of overall misses
system.cpu1.icache.overall_accesses::total      5059494                       # number of overall (read+write) accesses
system.cpu1.icache.overall_miss_rate::total     0.007471                       # miss rate for overall accesses
system.cpu2.dcache.overall_hits::total        7483016                       # number of overall hits
system.cpu2.dcache.overall_misses::total       300230                       # number of overall misses
system.cpu2.dcache.overall_accesses::total      7783246                       # number of overall (read+write) accesses
system.cpu2.dcache.overall_miss_rate::total     0.038574                       # miss rate for overall accesses
system.cpu2.icache.overall_hits::total       24785050                       # number of overall hits
system.cpu2.icache.overall_misses::total       405630                       # number of overall misses
system.cpu2.icache.overall_accesses::total     25190680                       # number of overall (read+write) accesses
system.cpu2.icache.overall_miss_rate::total     0.016102                       # miss rate for overall accesses
system.cpu3.dcache.overall_hits::total        4519157                       # number of overall hits
system.cpu3.dcache.overall_misses::total       209434                       # number of overall misses
system.cpu3.dcache.overall_accesses::total      4728591                       # number of overall (read+write) accesses
system.cpu3.dcache.overall_miss_rate::total     0.044291                       # miss rate for overall accesses
system.cpu3.icache.overall_hits::total       13948732                       # number of overall hits
system.cpu3.icache.overall_misses::total       334117                       # number of overall misses
system.cpu3.icache.overall_accesses::total     14282849                       # number of overall (read+write) accesses
system.cpu3.icache.overall_miss_rate::total     0.023393                       # miss rate for overall accesses
system.l2.overall_hits::total                 2593481                       # number of overall hits
system.l2.overall_misses::total               1521929                       # number of overall misses
system.l2.overall_accesses::total             4115410                       # number of overall (read+write) accesses
system.l2.overall_miss_rate::total           0.369812                       # miss rate for overall accesses
---------- End Simulation Statistics   ----------
---------- Begin Simulation Statistics ----------
system.cpu0.dcache.overall_hits::total          55461                       # number of overall hits
system.cpu0.dcache.overall_misses::total         2808                       # number of overall misses
system.cpu0.dcache.overall_accesses::total        58269                       # number of overall (read+write) accesses
system.cpu0.dcache.overall_miss_rate::total     0.048190                       # miss rate for overall accesses
system.cpu0.icache.overall_hits::total         200797                       # number of overall hits
system.cpu0.icache.overall_misses::total         2619                       # number of overall misses
system.cpu0.icache.overall_accesses::total       203416                       # number of overall (read+write) accesses
system.cpu0.icache.overall_miss_rate::total     0.012875                       # miss rate for overall accesses
system.cpu1.dcache.overall_hits::total            607                       # number of overall hits
system.cpu1.dcache.overall_misses::total           48                       # number of overall misses
system.cpu1.dcache.overall_accesses::total          655                       # number of overall (read+write) accesses
system.cpu1.dcache.overall_miss_rate::total     0.073282                       # miss rate for overall accesses
system.cpu1.icache.overall_hits::total           1840                       # number of overall hits
system.cpu1.icache.overall_misses::total           88                       # number of overall misses
system.cpu1.icache.overall_accesses::total         1928                       # number of overall (read+write) accesses
system.cpu1.icache.overall_miss_rate::total     0.045643                       # miss rate for overall accesses
system.cpu2.dcache.overall_hits::total         257594                       # number of overall hits
system.cpu2.dcache.overall_misses::total         7437                       # number of overall misses
system.cpu2.dcache.overall_accesses::total       265031                       # number of overall (read+write) accesses
system.cpu2.dcache.overall_miss_rate::total     0.028061                       # miss rate for overall accesses
system.cpu2.icache.overall_hits::total         845483                       # number of overall hits
system.cpu2.icache.overall_misses::total        21216                       # number of overall misses
system.cpu2.icache.overall_accesses::total       866699                       # number of overall (read+write) accesses
system.cpu2.icache.overall_miss_rate::total     0.024479                       # miss rate for overall accesses
system.cpu3.dcache.overall_hits::total          95746                       # number of overall hits
system.cpu3.dcache.overall_misses::total         4802                       # number of overall misses
system.cpu3.dcache.overall_accesses::total       100548                       # number of overall (read+write) accesses
system.cpu3.dcache.overall_miss_rate::total     0.047758                       # miss rate for overall accesses
system.cpu3.icache.overall_hits::total         277394                       # number of overall hits
system.cpu3.icache.overall_misses::total         2784                       # number of overall misses
system.cpu3.icache.overall_accesses::total       280178                       # number of overall (read+write) accesses
system.cpu3.icache.overall_miss_rate::total     0.009937                       # miss rate for overall accesses
system.l2.overall_hits::total                   33074                       # number of overall hits
system.l2.overall_misses::total                  7391                       # number of overall misses
system.l2.overall_accesses::total               40465                       # number of overall (read+write) accesses
system.l2.overall_miss_rate::total           0.182652                       # miss rate for overall accesses
---------- End Simulation Statistics   ----------
---------- Begin Simulation Statistics ----------
system.cpu0.dcache.overall_hits::total     2781522164                       # number of overall hits
system.cpu0.dcache.overall_misses::total    120590035                       # number of overall misses
system.cpu0.dcache.overall_accesses::total   2902112199                       # number of overall (read+write) accesses
system.cpu0.dcache.overall_miss_rate::total     0.041553                       # miss rate for overall accesses
system.cpu0.icache.overall_hits::total     9370206339                       # number of overall hits
system.cpu0.icache.overall_misses::total     24277438                       # number of overall misses
system.cpu0.icache.overall_accesses::total   9394483777                       # number of overall (read+write) accesses
system.cpu0.icache.overall_miss_rate::total     0.002584                       # miss rate for overall accesses
system.cpu1.dcache.overall_hits::total     2843411704                       # number of overall hits
system.cpu1.dcache.overall_misses::total    121361965                       # number of overall misses
system.cpu1.dcache.overall_accesses::total   2964773669                       # number of overall (read+write) accesses
system.cpu1.dcache.overall_miss_rate::total     0.040935                       # miss rate for overall accesses
system.cpu1.icache.overall_hits::total     9561358634                       # number of overall hits
system.cpu1.icache.overall_misses::total     22934898                       # number of overall misses
system.cpu1.icache.overall_accesses::total   9584293532                       # number of overall (read+write) accesses
system.cpu1.icache.overall_miss_rate::total     0.002393                       # miss rate for overall accesses
system.cpu2.dcache.overall_hits::total     2834969126                       # number of overall hits
system.cpu2.dcache.overall_misses::total    118325101                       # number of overall misses
system.cpu2.dcache.overall_accesses::total   2953294227                       # number of overall (read+write) accesses
system.cpu2.dcache.overall_miss_rate::total     0.040065                       # miss rate for overall accesses
system.cpu2.icache.overall_hits::total     9492583493                       # number of overall hits
system.cpu2.icache.overall_misses::total     22095505                       # number of overall misses
system.cpu2.icache.overall_accesses::total   9514678998                       # number of overall (read+write) accesses
system.cpu2.icache.overall_miss_rate::total     0.002322                       # miss rate for overall accesses
system.cpu3.dcache.overall_hits::total     2810582903                       # number of overall hits
system.cpu3.dcache.overall_misses::total    120304992                       # number of overall misses
system.cpu3.dcache.overall_accesses::total   2930887895                       # number of overall (read+write) accesses
system.cpu3.dcache.overall_miss_rate::total     0.041047                       # miss rate for overall accesses
system.cpu3.icache.overall_hits::total     9453164862                       # number of overall hits
system.cpu3.icache.overall_misses::total     23055080                       # number of overall misses
system.cpu3.icache.overall_accesses::total   9476219942                       # number of overall (read+write) accesses
system.cpu3.icache.overall_miss_rate::total     0.002433                       # miss rate for overall accesses
system.l2.overall_hits::total               227609784                       # number of overall hits
system.l2.overall_misses::total             264052984                       # number of overall misses
system.l2.overall_accesses::total           491662768                       # number of overall (read+write) accesses
system.l2.overall_miss_rate::total           0.537061                       # miss rate for overall accesses
---------- End Simulation Statistics   ----------
---------- Begin Simulation Statistics ----------
system.cpu0.dcache.overall_hits::total         195265                       # number of overall hits
system.cpu0.dcache.overall_misses::total        11417                       # number of overall misses
system.cpu0.dcache.overall_accesses::total       206682                       # number of overall (read+write) accesses
system.cpu0.dcache.overall_miss_rate::total     0.055239                       # miss rate for overall accesses
system.cpu0.icache.overall_hits::total         574438                       # number of overall hits
system.cpu0.icache.overall_misses::total         4620                       # number of overall misses
system.cpu0.icache.overall_accesses::total       579058                       # number of overall (read+write) accesses
system.cpu0.icache.overall_miss_rate::total     0.007978                       # miss rate for overall accesses
system.cpu1.dcache.overall_hits::total            571                       # number of overall hits
system.cpu1.dcache.overall_misses::total            9                       # number of overall misses
system.cpu1.dcache.overall_accesses::total          580                       # number of overall (read+write) accesses
system.cpu1.dcache.overall_miss_rate::total     0.015517                       # miss rate for overall accesses
system.cpu1.icache.overall_hits::total           1659                       # number of overall hits
system.cpu1.icache.overall_misses::total            5                       # number of overall misses
system.cpu1.icache.overall_accesses::total         1664                       # number of overall (read+write) accesses
system.cpu1.icache.overall_miss_rate::total     0.003005                       # miss rate for overall accesses
system.cpu2.dcache.overall_hits::total         279403                       # number of overall hits
system.cpu2.dcache.overall_misses::total         8323                       # number of overall misses
system.cpu2.dcache.overall_accesses::total       287726                       # number of overall (read+write) accesses
system.cpu2.dcache.overall_miss_rate::total     0.028927                       # miss rate for overall accesses
system.cpu2.icache.overall_hits::total        1089014                       # number of overall hits
system.cpu2.icache.overall_misses::total         4674                       # number of overall misses
system.cpu2.icache.overall_accesses::total      1093688                       # number of overall (read+write) accesses
system.cpu2.icache.overall_miss_rate::total     0.004274                       # miss rate for overall accesses
system.cpu3.dcache.overall_hits::total          52439                       # number of overall hits
system.cpu3.dcache.overall_misses::total         2609                       # number of overall misses
system.cpu3.dcache.overall_accesses::total        55048                       # number of overall (read+write) accesses
system.cpu3.dcache.overall_miss_rate::total     0.047395                       # miss rate for overall accesses
system.cpu3.icache.overall_hits::total         201389                       # number of overall hits
system.cpu3.icache.overall_misses::total         1671                       # number of overall misses
system.cpu3.icache.overall_accesses::total       203060                       # number of overall (read+write) accesses
system.cpu3.icache.overall_miss_rate::total     0.008229                       # miss rate for overall accesses
system.l2.overall_hits::total                   13258                       # number of overall hits
system.l2.overall_misses::total                 19722                       # number of overall misses
system.l2.overall_accesses::total               32980                       # number of overall (read+write) accesses
system.l2.overall_miss_rate::total           0.597999                       # miss rate for overall accesses
---------- End Simulation Statistics   ----------
