---------- Begin Simulation Statistics ----------
system.cpu0.dcache.overall_hits::total       14744849                       # number of overall hits
system.cpu0.dcache.overall_misses::total      2583309                       # number of overall misses
system.cpu0.dcache.overall_accesses::total     17328158                       # number of overall (read+write) accesses
system.cpu0.dcache.overall_miss_rate::total     0.149082                       # miss rate for overall accesses
system.cpu0.icache.overall_hits::total       72129651                       # number of overall hits
system.cpu0.icache.overall_misses::total       501703                       # number of overall misses
system.cpu0.icache.overall_accesses::total     72631354                       # number of overall (read+write) accesses
system.cpu0.icache.overall_miss_rate::total     0.006908                       # miss rate for overall accesses
system.cpu1.dcache.overall_hits::total        1648546                       # number of overall hits
system.cpu1.dcache.overall_misses::total        34628                       # number of overall misses
system.cpu1.dcache.overall_accesses::total      1683174                       # number of overall (read+write) accesses
system.cpu1.dcache.overall_miss_rate::total     0.020573                       # miss rate for overall accesses
system.cpu1.icache.overall_hits::total        5021610                       # number of overall hits
system.cpu1.icache.overall_misses::total        37884                       # number of overall misses
system.cpu1.icache.overall_accesses::total      5059494                       # number of overall (read+write) accesses
system.cpu1.icache.overall_miss_rate::total     0.007488                       # miss rate for overall accesses
system.cpu2.dcache.overall_hits::total        7483887                       # number of overall hits
system.cpu2.dcache.overall_misses::total       298054                       # number of overall misses
system.cpu2.dcache.overall_accesses::total      7781941                       # number of overall (read+write) accesses
system.cpu2.dcache.overall_miss_rate::total     0.038301                       # miss rate for overall accesses
system.cpu2.icache.overall_hits::total       24782821                       # number of overall hits
system.cpu2.icache.overall_misses::total       404731                       # number of overall misses
system.cpu2.icache.overall_accesses::total     25187552                       # number of overall (read+write) accesses
system.cpu2.icache.overall_miss_rate::total     0.016069                       # miss rate for overall accesses
system.cpu3.dcache.overall_hits::total        4530070                       # number of overall hits
system.cpu3.dcache.overall_misses::total       198516                       # number of overall misses
system.cpu3.dcache.overall_accesses::total      4728586                       # number of overall (read+write) accesses
system.cpu3.dcache.overall_miss_rate::total     0.041982                       # miss rate for overall accesses
system.cpu3.icache.overall_hits::total       13945385                       # number of overall hits
system.cpu3.icache.overall_misses::total       337449                       # number of overall misses
system.cpu3.icache.overall_accesses::total     14282834                       # number of overall (read+write) accesses
system.cpu3.icache.overall_miss_rate::total     0.023626                       # miss rate for overall accesses
system.l2.overall_hits::total                 2734982                       # number of overall hits
system.l2.overall_misses::total               1396070                       # number of overall misses
system.l2.overall_accesses::total             4131052                       # number of overall (read+write) accesses
system.l2.overall_miss_rate::total           0.337945                       # miss rate for overall accesses
---------- End Simulation Statistics   ----------
---------- Begin Simulation Statistics ----------
system.cpu0.dcache.overall_hits::total          67101                       # number of overall hits
system.cpu0.dcache.overall_misses::total         2275                       # number of overall misses
system.cpu0.dcache.overall_accesses::total        69376                       # number of overall (read+write) accesses
system.cpu0.dcache.overall_miss_rate::total     0.032792                       # miss rate for overall accesses
system.cpu0.icache.overall_hits::total         243084                       # number of overall hits
system.cpu0.icache.overall_misses::total         1840                       # number of overall misses
system.cpu0.icache.overall_accesses::total       244924                       # number of overall (read+write) accesses
system.cpu0.icache.overall_miss_rate::total     0.007513                       # miss rate for overall accesses
system.cpu1.dcache.overall_hits::total            610                       # number of overall hits
system.cpu1.dcache.overall_misses::total           45                       # number of overall misses
system.cpu1.dcache.overall_accesses::total          655                       # number of overall (read+write) accesses
system.cpu1.dcache.overall_miss_rate::total     0.068702                       # miss rate for overall accesses
system.cpu1.icache.overall_hits::total           1840                       # number of overall hits
system.cpu1.icache.overall_misses::total           88                       # number of overall misses
system.cpu1.icache.overall_accesses::total         1928                       # number of overall (read+write) accesses
system.cpu1.icache.overall_miss_rate::total     0.045643                       # miss rate for overall accesses
system.cpu2.dcache.overall_hits::total         293118                       # number of overall hits
system.cpu2.dcache.overall_misses::total        10725                       # number of overall misses
system.cpu2.dcache.overall_accesses::total       303843                       # number of overall (read+write) accesses
system.cpu2.dcache.overall_miss_rate::total     0.035298                       # miss rate for overall accesses
system.cpu2.icache.overall_hits::total         934604                       # number of overall hits
system.cpu2.icache.overall_misses::total        23758                       # number of overall misses
system.cpu2.icache.overall_accesses::total       958362                       # number of overall (read+write) accesses
system.cpu2.icache.overall_miss_rate::total     0.024790                       # miss rate for overall accesses
system.cpu3.dcache.overall_hits::total          79510                       # number of overall hits
system.cpu3.dcache.overall_misses::total         5199                       # number of overall misses
system.cpu3.dcache.overall_accesses::total        84709                       # number of overall (read+write) accesses
system.cpu3.dcache.overall_miss_rate::total     0.061375                       # miss rate for overall accesses
system.cpu3.icache.overall_hits::total         228822                       # number of overall hits
system.cpu3.icache.overall_misses::total         3613                       # number of overall misses
system.cpu3.icache.overall_accesses::total       232435                       # number of overall (read+write) accesses
system.cpu3.icache.overall_miss_rate::total     0.015544                       # miss rate for overall accesses
system.l2.overall_hits::total                   39477                       # number of overall hits
system.l2.overall_misses::total                  6563                       # number of overall misses
system.l2.overall_accesses::total               46040                       # number of overall (read+write) accesses
system.l2.overall_miss_rate::total           0.142550                       # miss rate for overall accesses
---------- End Simulation Statistics   ----------
---------- Begin Simulation Statistics ----------
system.cpu0.dcache.overall_hits::total    27496787819                       # number of overall hits
system.cpu0.dcache.overall_misses::total    978207308                       # number of overall misses
system.cpu0.dcache.overall_accesses::total  28474995127                       # number of overall (read+write) accesses
system.cpu0.dcache.overall_miss_rate::total     0.034353                       # miss rate for overall accesses
system.cpu0.icache.overall_hits::total    66115933435                       # number of overall hits
system.cpu0.icache.overall_misses::total     29830769                       # number of overall misses
system.cpu0.icache.overall_accesses::total  66145764204                       # number of overall (read+write) accesses
system.cpu0.icache.overall_miss_rate::total     0.000451                       # miss rate for overall accesses
system.cpu1.dcache.overall_hits::total    26065826938                       # number of overall hits
system.cpu1.dcache.overall_misses::total    894469748                       # number of overall misses
system.cpu1.dcache.overall_accesses::total  26960296686                       # number of overall (read+write) accesses
system.cpu1.dcache.overall_miss_rate::total     0.033177                       # miss rate for overall accesses
system.cpu1.icache.overall_hits::total    63563255211                       # number of overall hits
system.cpu1.icache.overall_misses::total     43602831                       # number of overall misses
system.cpu1.icache.overall_accesses::total  63606858042                       # number of overall (read+write) accesses
system.cpu1.icache.overall_miss_rate::total     0.000686                       # miss rate for overall accesses
system.cpu2.dcache.overall_hits::total    27329135805                       # number of overall hits
system.cpu2.dcache.overall_misses::total    941991456                       # number of overall misses
system.cpu2.dcache.overall_accesses::total  28271127261                       # number of overall (read+write) accesses
system.cpu2.dcache.overall_miss_rate::total     0.033320                       # miss rate for overall accesses
system.cpu2.icache.overall_hits::total    67048597008                       # number of overall hits
system.cpu2.icache.overall_misses::total     33815637                       # number of overall misses
system.cpu2.icache.overall_accesses::total  67082412645                       # number of overall (read+write) accesses
system.cpu2.icache.overall_miss_rate::total     0.000504                       # miss rate for overall accesses
system.cpu3.dcache.overall_hits::total    26314992999                       # number of overall hits
system.cpu3.dcache.overall_misses::total    942902293                       # number of overall misses
system.cpu3.dcache.overall_accesses::total  27257895292                       # number of overall (read+write) accesses
system.cpu3.dcache.overall_miss_rate::total     0.034592                       # miss rate for overall accesses
system.cpu3.icache.overall_hits::total    63609080712                       # number of overall hits
system.cpu3.icache.overall_misses::total     34045750                       # number of overall misses
system.cpu3.icache.overall_accesses::total  63643126462                       # number of overall (read+write) accesses
system.cpu3.icache.overall_miss_rate::total     0.000535                       # miss rate for overall accesses
system.l2.overall_hits::total               184795278                       # number of overall hits
system.l2.overall_misses::total              14019653                       # number of overall misses
system.l2.overall_accesses::total           198814931                       # number of overall (read+write) accesses
system.l2.overall_miss_rate::total           0.070516                       # miss rate for overall accesses
---------- End Simulation Statistics   ----------
---------- Begin Simulation Statistics ----------
system.cpu0.dcache.overall_hits::total        1789821                       # number of overall hits
system.cpu0.dcache.overall_misses::total        34417                       # number of overall misses
system.cpu0.dcache.overall_accesses::total      1824238                       # number of overall (read+write) accesses
system.cpu0.dcache.overall_miss_rate::total     0.018867                       # miss rate for overall accesses
system.cpu0.icache.overall_hits::total        7094402                       # number of overall hits
system.cpu0.icache.overall_misses::total        12521                       # number of overall misses
system.cpu0.icache.overall_accesses::total      7106923                       # number of overall (read+write) accesses
system.cpu0.icache.overall_miss_rate::total     0.001762                       # miss rate for overall accesses
system.cpu1.dcache.overall_hits::total           9731                       # number of overall hits
system.cpu1.dcache.overall_misses::total          361                       # number of overall misses
system.cpu1.dcache.overall_accesses::total        10092                       # number of overall (read+write) accesses
system.cpu1.dcache.overall_miss_rate::total     0.035771                       # miss rate for overall accesses
system.cpu1.icache.overall_hits::total          28878                       # number of overall hits
system.cpu1.icache.overall_misses::total          462                       # number of overall misses
system.cpu1.icache.overall_accesses::total        29340                       # number of overall (read+write) accesses
system.cpu1.icache.overall_miss_rate::total     0.015746                       # miss rate for overall accesses
system.cpu2.dcache.overall_hits::total         637951                       # number of overall hits
system.cpu2.dcache.overall_misses::total        23713                       # number of overall misses
system.cpu2.dcache.overall_accesses::total       661664                       # number of overall (read+write) accesses
system.cpu2.dcache.overall_miss_rate::total     0.035838                       # miss rate for overall accesses
system.cpu2.icache.overall_hits::total        2619045                       # number of overall hits
system.cpu2.icache.overall_misses::total         4216                       # number of overall misses
system.cpu2.icache.overall_accesses::total      2623261                       # number of overall (read+write) accesses
system.cpu2.icache.overall_miss_rate::total     0.001607                       # miss rate for overall accesses
system.cpu3.dcache.overall_hits::total          47348                       # number of overall hits
system.cpu3.dcache.overall_misses::total         2575                       # number of overall misses
system.cpu3.dcache.overall_accesses::total        49923                       # number of overall (read+write) accesses
system.cpu3.dcache.overall_miss_rate::total     0.051579                       # miss rate for overall accesses
system.cpu3.icache.overall_hits::total         171471                       # number of overall hits
system.cpu3.icache.overall_misses::total         1820                       # number of overall misses
system.cpu3.icache.overall_accesses::total       173291                       # number of overall (read+write) accesses
system.cpu3.icache.overall_miss_rate::total     0.010503                       # miss rate for overall accesses
system.l2.overall_hits::total                   48335                       # number of overall hits
system.l2.overall_misses::total                 31339                       # number of overall misses
system.l2.overall_accesses::total               79674                       # number of overall (read+write) accesses
system.l2.overall_miss_rate::total           0.393340                       # miss rate for overall accesses
---------- End Simulation Statistics   ----------
