---------- Begin Simulation Statistics ----------
system.cpu0.dcache.overall_hits::total       23018269                       # number of overall hits
system.cpu0.dcache.overall_misses::total      2012145                       # number of overall misses
system.cpu0.dcache.overall_accesses::total     25030414                       # number of overall (read+write) accesses
system.cpu0.dcache.overall_miss_rate::total     0.080388                       # miss rate for overall accesses
system.cpu0.icache.overall_hits::total      283107699                       # number of overall hits
system.cpu0.icache.overall_misses::total       622260                       # number of overall misses
system.cpu0.icache.overall_accesses::total    283729959                       # number of overall (read+write) accesses
system.cpu0.icache.overall_miss_rate::total     0.002193                       # miss rate for overall accesses
system.cpu1.dcache.overall_hits::total        2643455                       # number of overall hits
system.cpu1.dcache.overall_misses::total       386234                       # number of overall misses
system.cpu1.dcache.overall_accesses::total      3029689                       # number of overall (read+write) accesses
system.cpu1.dcache.overall_miss_rate::total     0.127483                       # miss rate for overall accesses
system.cpu1.icache.overall_hits::total       13686126                       # number of overall hits
system.cpu1.icache.overall_misses::total        44604                       # number of overall misses
system.cpu1.icache.overall_accesses::total     13730730                       # number of overall (read+write) accesses
system.cpu1.icache.overall_miss_rate::total     0.003248                       # miss rate for overall accesses
system.cpu2.dcache.overall_hits::total        2182577                       # number of overall hits
system.cpu2.dcache.overall_misses::total        57087                       # number of overall misses
system.cpu2.dcache.overall_accesses::total      2239664                       # number of overall (read+write) accesses
system.cpu2.dcache.overall_miss_rate::total     0.025489                       # miss rate for overall accesses
system.cpu2.icache.overall_hits::total        8091886                       # number of overall hits
system.cpu2.icache.overall_misses::total        47951                       # number of overall misses
system.cpu2.icache.overall_accesses::total      8139837                       # number of overall (read+write) accesses
system.cpu2.icache.overall_miss_rate::total     0.005891                       # miss rate for overall accesses
system.cpu3.dcache.overall_hits::total        2316176                       # number of overall hits
system.cpu3.dcache.overall_misses::total        64150                       # number of overall misses
system.cpu3.dcache.overall_accesses::total      2380326                       # number of overall (read+write) accesses
system.cpu3.dcache.overall_miss_rate::total     0.026950                       # miss rate for overall accesses
system.cpu3.icache.overall_hits::total        7818492                       # number of overall hits
system.cpu3.icache.overall_misses::total        44960                       # number of overall misses
system.cpu3.icache.overall_accesses::total      7863452                       # number of overall (read+write) accesses
system.cpu3.icache.overall_miss_rate::total     0.005718                       # miss rate for overall accesses
system.l2.overall_hits::total                 2300007                       # number of overall hits
system.l2.overall_misses::total                605268                       # number of overall misses
system.l2.overall_accesses::total             2905275                       # number of overall (read+write) accesses
system.l2.overall_miss_rate::total           0.208334                       # miss rate for overall accesses
---------- End Simulation Statistics   ----------
---------- Begin Simulation Statistics ----------
system.cpu0.dcache.overall_hits::total        6593841                       # number of overall hits
system.cpu0.dcache.overall_misses::total       352050                       # number of overall misses
system.cpu0.dcache.overall_accesses::total      6945891                       # number of overall (read+write) accesses
system.cpu0.dcache.overall_miss_rate::total     0.050685                       # miss rate for overall accesses
system.cpu0.icache.overall_hits::total       16428066                       # number of overall hits
system.cpu0.icache.overall_misses::total        45198                       # number of overall misses
system.cpu0.icache.overall_accesses::total     16473264                       # number of overall (read+write) accesses
system.cpu0.icache.overall_miss_rate::total     0.002744                       # miss rate for overall accesses
system.cpu1.dcache.overall_hits::total       18665812                       # number of overall hits
system.cpu1.dcache.overall_misses::total       654037                       # number of overall misses
system.cpu1.dcache.overall_accesses::total     19319849                       # number of overall (read+write) accesses
system.cpu1.dcache.overall_miss_rate::total     0.033853                       # miss rate for overall accesses
system.cpu1.icache.overall_hits::total       48239101                       # number of overall hits
system.cpu1.icache.overall_misses::total       151560                       # number of overall misses
system.cpu1.icache.overall_accesses::total     48390661                       # number of overall (read+write) accesses
system.cpu1.icache.overall_miss_rate::total     0.003132                       # miss rate for overall accesses
system.cpu2.dcache.overall_hits::total        7474039                       # number of overall hits
system.cpu2.dcache.overall_misses::total       283546                       # number of overall misses
system.cpu2.dcache.overall_accesses::total      7757585                       # number of overall (read+write) accesses
system.cpu2.dcache.overall_miss_rate::total     0.036551                       # miss rate for overall accesses
system.cpu2.icache.overall_hits::total       19249181                       # number of overall hits
system.cpu2.icache.overall_misses::total        67478                       # number of overall misses
system.cpu2.icache.overall_accesses::total     19316659                       # number of overall (read+write) accesses
system.cpu2.icache.overall_miss_rate::total     0.003493                       # miss rate for overall accesses
system.cpu3.dcache.overall_hits::total       36301929                       # number of overall hits
system.cpu3.dcache.overall_misses::total       968441                       # number of overall misses
system.cpu3.dcache.overall_accesses::total     37270370                       # number of overall (read+write) accesses
system.cpu3.dcache.overall_miss_rate::total     0.025984                       # miss rate for overall accesses
system.cpu3.icache.overall_hits::total      129970126                       # number of overall hits
system.cpu3.icache.overall_misses::total       113121                       # number of overall misses
system.cpu3.icache.overall_accesses::total    130083247                       # number of overall (read+write) accesses
system.cpu3.icache.overall_miss_rate::total     0.000870                       # miss rate for overall accesses
system.l2.overall_hits::total                 1259492                       # number of overall hits
system.l2.overall_misses::total               1782830                       # number of overall misses
system.l2.overall_accesses::total             3042322                       # number of overall (read+write) accesses
system.l2.overall_miss_rate::total           0.586010                       # miss rate for overall accesses
---------- End Simulation Statistics   ----------
---------- Begin Simulation Statistics ----------
system.cpu0.dcache.overall_hits::total         107421                       # number of overall hits
system.cpu0.dcache.overall_misses::total         3308                       # number of overall misses
system.cpu0.dcache.overall_accesses::total       110729                       # number of overall (read+write) accesses
system.cpu0.dcache.overall_miss_rate::total     0.029875                       # miss rate for overall accesses
system.cpu0.icache.overall_hits::total         318690                       # number of overall hits
system.cpu0.icache.overall_misses::total         3768                       # number of overall misses
system.cpu0.icache.overall_accesses::total       322458                       # number of overall (read+write) accesses
system.cpu0.icache.overall_miss_rate::total     0.011685                       # miss rate for overall accesses
system.cpu1.dcache.overall_hits::total        4470737                       # number of overall hits
system.cpu1.dcache.overall_misses::total       161940                       # number of overall misses
system.cpu1.dcache.overall_accesses::total      4632677                       # number of overall (read+write) accesses
system.cpu1.dcache.overall_miss_rate::total     0.034956                       # miss rate for overall accesses
system.cpu1.icache.overall_hits::total       15553727                       # number of overall hits
system.cpu1.icache.overall_misses::total        68952                       # number of overall misses
system.cpu1.icache.overall_accesses::total     15622679                       # number of overall (read+write) accesses
system.cpu1.icache.overall_miss_rate::total     0.004414                       # miss rate for overall accesses
system.cpu2.dcache.overall_hits::total         143793                       # number of overall hits
system.cpu2.dcache.overall_misses::total         5939                       # number of overall misses
system.cpu2.dcache.overall_accesses::total       149732                       # number of overall (read+write) accesses
system.cpu2.dcache.overall_miss_rate::total     0.039664                       # miss rate for overall accesses
system.cpu2.icache.overall_hits::total         428911                       # number of overall hits
system.cpu2.icache.overall_misses::total         6020                       # number of overall misses
system.cpu2.icache.overall_accesses::total       434931                       # number of overall (read+write) accesses
system.cpu2.icache.overall_miss_rate::total     0.013841                       # miss rate for overall accesses
system.cpu3.dcache.overall_hits::total        1672234                       # number of overall hits
system.cpu3.dcache.overall_misses::total        26761                       # number of overall misses
system.cpu3.dcache.overall_accesses::total      1698995                       # number of overall (read+write) accesses
system.cpu3.dcache.overall_miss_rate::total     0.015751                       # miss rate for overall accesses
system.cpu3.icache.overall_hits::total        5544087                       # number of overall hits
system.cpu3.icache.overall_misses::total        15266                       # number of overall misses
system.cpu3.icache.overall_accesses::total      5559353                       # number of overall (read+write) accesses
system.cpu3.icache.overall_miss_rate::total     0.002746                       # miss rate for overall accesses
system.l2.overall_hits::total                  175184                       # number of overall hits
system.l2.overall_misses::total                136303                       # number of overall misses
system.l2.overall_accesses::total              311487                       # number of overall (read+write) accesses
system.l2.overall_miss_rate::total           0.437588                       # miss rate for overall accesses
---------- End Simulation Statistics   ----------
