---------- Begin Simulation Statistics ----------
system.cpu0.dcache.overall_hits::total       23018287                       # number of overall hits
system.cpu0.dcache.overall_misses::total      2012145                       # number of overall misses
system.cpu0.dcache.overall_accesses::total     25030432                       # number of overall (read+write) accesses
system.cpu0.dcache.overall_miss_rate::total     0.080388                       # miss rate for overall accesses
system.cpu0.icache.overall_hits::total      283107746                       # number of overall hits
system.cpu0.icache.overall_misses::total       622260                       # number of overall misses
system.cpu0.icache.overall_accesses::total    283730006                       # number of overall (read+write) accesses
system.cpu0.icache.overall_miss_rate::total     0.002193                       # miss rate for overall accesses
system.cpu1.dcache.overall_hits::total        2643455                       # number of overall hits
system.cpu1.dcache.overall_misses::total       386234                       # number of overall misses
system.cpu1.dcache.overall_accesses::total      3029689                       # number of overall (read+write) accesses
system.cpu1.dcache.overall_miss_rate::total     0.127483                       # miss rate for overall accesses
system.cpu1.icache.overall_hits::total       13686126                       # number of overall hits
system.cpu1.icache.overall_misses::total        44604                       # number of overall misses
system.cpu1.icache.overall_accesses::total     13730730                       # number of overall (read+write) accesses
system.cpu1.icache.overall_miss_rate::total     0.003248                       # miss rate for overall accesses
system.cpu2.dcache.overall_hits::total        2182577                       # number of overall hits
system.cpu2.dcache.overall_misses::total        57087                       # number of overall misses
system.cpu2.dcache.overall_accesses::total      2239664                       # number of overall (read+write) accesses
system.cpu2.dcache.overall_miss_rate::total     0.025489                       # miss rate for overall accesses
system.cpu2.icache.overall_hits::total        8091886                       # number of overall hits
system.cpu2.icache.overall_misses::total        47951                       # number of overall misses
system.cpu2.icache.overall_accesses::total      8139837                       # number of overall (read+write) accesses
system.cpu2.icache.overall_miss_rate::total     0.005891                       # miss rate for overall accesses
system.cpu3.dcache.overall_hits::total        2316262                       # number of overall hits
system.cpu3.dcache.overall_misses::total        64150                       # number of overall misses
system.cpu3.dcache.overall_accesses::total      2380412                       # number of overall (read+write) accesses
system.cpu3.dcache.overall_miss_rate::total     0.026949                       # miss rate for overall accesses
system.cpu3.icache.overall_hits::total        7818700                       # number of overall hits
system.cpu3.icache.overall_misses::total        44960                       # number of overall misses
system.cpu3.icache.overall_accesses::total      7863660                       # number of overall (read+write) accesses
system.cpu3.icache.overall_miss_rate::total     0.005717                       # miss rate for overall accesses
system.l2.overall_hits::total                 2300007                       # number of overall hits
system.l2.overall_misses::total                605268                       # number of overall misses
system.l2.overall_accesses::total             2905275                       # number of overall (read+write) accesses
system.l2.overall_miss_rate::total           0.208334                       # miss rate for overall accesses
---------- End Simulation Statistics   ----------
---------- Begin Simulation Statistics ----------
system.cpu0.dcache.overall_hits::total         952360                       # number of overall hits
system.cpu0.dcache.overall_misses::total         8251                       # number of overall misses
system.cpu0.dcache.overall_accesses::total       960611                       # number of overall (read+write) accesses
system.cpu0.dcache.overall_miss_rate::total     0.008589                       # miss rate for overall accesses
system.cpu0.icache.overall_hits::total        3646534                       # number of overall hits
system.cpu0.icache.overall_misses::total         8090                       # number of overall misses
system.cpu0.icache.overall_accesses::total      3654624                       # number of overall (read+write) accesses
system.cpu0.icache.overall_miss_rate::total     0.002214                       # miss rate for overall accesses
system.cpu1.dcache.overall_hits::total         246895                       # number of overall hits
system.cpu1.dcache.overall_misses::total         7339                       # number of overall misses
system.cpu1.dcache.overall_accesses::total       254234                       # number of overall (read+write) accesses
system.cpu1.dcache.overall_miss_rate::total     0.028867                       # miss rate for overall accesses
system.cpu1.icache.overall_hits::total         658347                       # number of overall hits
system.cpu1.icache.overall_misses::total         6435                       # number of overall misses
system.cpu1.icache.overall_accesses::total       664782                       # number of overall (read+write) accesses
system.cpu1.icache.overall_miss_rate::total     0.009680                       # miss rate for overall accesses
system.cpu2.dcache.overall_hits::total      179385901                       # number of overall hits
system.cpu2.dcache.overall_misses::total       207904                       # number of overall misses
system.cpu2.dcache.overall_accesses::total    179593805                       # number of overall (read+write) accesses
system.cpu2.dcache.overall_miss_rate::total     0.001158                       # miss rate for overall accesses
system.cpu2.icache.overall_hits::total      756466679                       # number of overall hits
system.cpu2.icache.overall_misses::total       452286                       # number of overall misses
system.cpu2.icache.overall_accesses::total    756918965                       # number of overall (read+write) accesses
system.cpu2.icache.overall_miss_rate::total     0.000598                       # miss rate for overall accesses
system.cpu3.dcache.overall_hits::total         251577                       # number of overall hits
system.cpu3.dcache.overall_misses::total         7521                       # number of overall misses
system.cpu3.dcache.overall_accesses::total       259098                       # number of overall (read+write) accesses
system.cpu3.dcache.overall_miss_rate::total     0.029028                       # miss rate for overall accesses
system.cpu3.icache.overall_hits::total         680238                       # number of overall hits
system.cpu3.icache.overall_misses::total         7323                       # number of overall misses
system.cpu3.icache.overall_accesses::total       687561                       # number of overall (read+write) accesses
system.cpu3.icache.overall_miss_rate::total     0.010651                       # miss rate for overall accesses
system.l2.overall_hits::total                  513942                       # number of overall hits
system.l2.overall_misses::total                168655                       # number of overall misses
system.l2.overall_accesses::total              682597                       # number of overall (read+write) accesses
system.l2.overall_miss_rate::total           0.247078                       # miss rate for overall accesses
---------- End Simulation Statistics   ----------
---------- Begin Simulation Statistics ----------
system.cpu0.dcache.overall_hits::total      100167070                       # number of overall hits
system.cpu0.dcache.overall_misses::total        57138                       # number of overall misses
system.cpu0.dcache.overall_accesses::total    100224208                       # number of overall (read+write) accesses
system.cpu0.dcache.overall_miss_rate::total     0.000570                       # miss rate for overall accesses
system.cpu0.icache.overall_hits::total      460803052                       # number of overall hits
system.cpu0.icache.overall_misses::total         4479                       # number of overall misses
system.cpu0.icache.overall_accesses::total    460807531                       # number of overall (read+write) accesses
system.cpu0.icache.overall_miss_rate::total     0.000010                       # miss rate for overall accesses
system.cpu1.dcache.overall_hits::total      100607501                       # number of overall hits
system.cpu1.dcache.overall_misses::total        38677                       # number of overall misses
system.cpu1.dcache.overall_accesses::total    100646178                       # number of overall (read+write) accesses
system.cpu1.dcache.overall_miss_rate::total     0.000384                       # miss rate for overall accesses
system.cpu1.icache.overall_hits::total      462776957                       # number of overall hits
system.cpu1.icache.overall_misses::total         4357                       # number of overall misses
system.cpu1.icache.overall_accesses::total    462781314                       # number of overall (read+write) accesses
system.cpu1.icache.overall_miss_rate::total     0.000009                       # miss rate for overall accesses
system.cpu2.dcache.overall_hits::total      100995824                       # number of overall hits
system.cpu2.dcache.overall_misses::total        36975                       # number of overall misses
system.cpu2.dcache.overall_accesses::total    101032799                       # number of overall (read+write) accesses
system.cpu2.dcache.overall_miss_rate::total     0.000366                       # miss rate for overall accesses
system.cpu2.icache.overall_hits::total      464259255                       # number of overall hits
system.cpu2.icache.overall_misses::total         8898                       # number of overall misses
system.cpu2.icache.overall_accesses::total    464268153                       # number of overall (read+write) accesses
system.cpu2.icache.overall_miss_rate::total     0.000019                       # miss rate for overall accesses
system.cpu3.dcache.overall_hits::total       99318387                       # number of overall hits
system.cpu3.dcache.overall_misses::total        37171                       # number of overall misses
system.cpu3.dcache.overall_accesses::total     99355558                       # number of overall (read+write) accesses
system.cpu3.dcache.overall_miss_rate::total     0.000374                       # miss rate for overall accesses
system.cpu3.icache.overall_hits::total      456722050                       # number of overall hits
system.cpu3.icache.overall_misses::total         5608                       # number of overall misses
system.cpu3.icache.overall_accesses::total    456727658                       # number of overall (read+write) accesses
system.cpu3.icache.overall_miss_rate::total     0.000012                       # miss rate for overall accesses
system.l2.overall_hits::total                  161209                       # number of overall hits
system.l2.overall_misses::total                 31821                       # number of overall misses
system.l2.overall_accesses::total              193030                       # number of overall (read+write) accesses
system.l2.overall_miss_rate::total           0.164850                       # miss rate for overall accesses
---------- End Simulation Statistics   ----------
