---------- Begin Simulation Statistics ----------
system.cpu0.dcache.overall_hits::total       23018269                       # number of overall hits
system.cpu0.dcache.overall_misses::total      2012145                       # number of overall misses
system.cpu0.dcache.overall_accesses::total     25030414                       # number of overall (read+write) accesses
system.cpu0.dcache.overall_miss_rate::total     0.080388                       # miss rate for overall accesses
system.cpu0.icache.overall_hits::total      283107699                       # number of overall hits
system.cpu0.icache.overall_misses::total       622260                       # number of overall misses
system.cpu0.icache.overall_accesses::total    283729959                       # number of overall (read+write) accesses
system.cpu0.icache.overall_miss_rate::total     0.002193                       # miss rate for overall accesses
system.cpu1.dcache.overall_hits::total        2643455                       # number of overall hits
system.cpu1.dcache.overall_misses::total       386234                       # number of overall misses
system.cpu1.dcache.overall_accesses::total      3029689                       # number of overall (read+write) accesses
system.cpu1.dcache.overall_miss_rate::total     0.127483                       # miss rate for overall accesses
system.cpu1.icache.overall_hits::total       13686126                       # number of overall hits
system.cpu1.icache.overall_misses::total        44604                       # number of overall misses
system.cpu1.icache.overall_accesses::total     13730730                       # number of overall (read+write) accesses
system.cpu1.icache.overall_miss_rate::total     0.003248                       # miss rate for overall accesses
system.cpu2.dcache.overall_hits::total        2182577                       # number of overall hits
system.cpu2.dcache.overall_misses::total        57087                       # number of overall misses
system.cpu2.dcache.overall_accesses::total      2239664                       # number of overall (read+write) accesses
system.cpu2.dcache.overall_miss_rate::total     0.025489                       # miss rate for overall accesses
system.cpu2.icache.overall_hits::total        8091886                       # number of overall hits
system.cpu2.icache.overall_misses::total        47951                       # number of overall misses
system.cpu2.icache.overall_accesses::total      8139837                       # number of overall (read+write) accesses
system.cpu2.icache.overall_miss_rate::total     0.005891                       # miss rate for overall accesses
system.cpu3.dcache.overall_hits::total        2316254                       # number of overall hits
system.cpu3.dcache.overall_misses::total        64150                       # number of overall misses
system.cpu3.dcache.overall_accesses::total      2380404                       # number of overall (read+write) accesses
system.cpu3.dcache.overall_miss_rate::total     0.026949                       # miss rate for overall accesses
system.cpu3.icache.overall_hits::total        7818672                       # number of overall hits
system.cpu3.icache.overall_misses::total        44960                       # number of overall misses
system.cpu3.icache.overall_accesses::total      7863632                       # number of overall (read+write) accesses
system.cpu3.icache.overall_miss_rate::total     0.005717                       # miss rate for overall accesses
system.l2.overall_hits::total                 2300007                       # number of overall hits
system.l2.overall_misses::total                605268                       # number of overall misses
system.l2.overall_accesses::total             2905275                       # number of overall (read+write) accesses
system.l2.overall_miss_rate::total           0.208334                       # miss rate for overall accesses
---------- End Simulation Statistics   ----------
---------- Begin Simulation Statistics ----------
system.cpu0.dcache.overall_hits::total         799487                       # number of overall hits
system.cpu0.dcache.overall_misses::total         3628                       # number of overall misses
system.cpu0.dcache.overall_accesses::total       803115                       # number of overall (read+write) accesses
system.cpu0.dcache.overall_miss_rate::total     0.004517                       # miss rate for overall accesses
system.cpu0.icache.overall_hits::total        3249407                       # number of overall hits
system.cpu0.icache.overall_misses::total         5980                       # number of overall misses
system.cpu0.icache.overall_accesses::total      3255387                       # number of overall (read+write) accesses
system.cpu0.icache.overall_miss_rate::total     0.001837                       # miss rate for overall accesses
system.cpu1.dcache.overall_hits::total         105070                       # number of overall hits
system.cpu1.dcache.overall_misses::total         3936                       # number of overall misses
system.cpu1.dcache.overall_accesses::total       109006                       # number of overall (read+write) accesses
system.cpu1.dcache.overall_miss_rate::total     0.036108                       # miss rate for overall accesses
system.cpu1.icache.overall_hits::total         301853                       # number of overall hits
system.cpu1.icache.overall_misses::total         4786                       # number of overall misses
system.cpu1.icache.overall_accesses::total       306639                       # number of overall (read+write) accesses
system.cpu1.icache.overall_miss_rate::total     0.015608                       # miss rate for overall accesses
system.cpu2.dcache.overall_hits::total       10651503                       # number of overall hits
system.cpu2.dcache.overall_misses::total        18897                       # number of overall misses
system.cpu2.dcache.overall_accesses::total     10670400                       # number of overall (read+write) accesses
system.cpu2.dcache.overall_miss_rate::total     0.001771                       # miss rate for overall accesses
system.cpu2.icache.overall_hits::total       44766675                       # number of overall hits
system.cpu2.icache.overall_misses::total        32192                       # number of overall misses
system.cpu2.icache.overall_accesses::total     44798867                       # number of overall (read+write) accesses
system.cpu2.icache.overall_miss_rate::total     0.000719                       # miss rate for overall accesses
system.cpu3.dcache.overall_hits::total         111555                       # number of overall hits
system.cpu3.dcache.overall_misses::total         4485                       # number of overall misses
system.cpu3.dcache.overall_accesses::total       116040                       # number of overall (read+write) accesses
system.cpu3.dcache.overall_miss_rate::total     0.038650                       # miss rate for overall accesses
system.cpu3.icache.overall_hits::total         331098                       # number of overall hits
system.cpu3.icache.overall_misses::total         5798                       # number of overall misses
system.cpu3.icache.overall_accesses::total       336896                       # number of overall (read+write) accesses
system.cpu3.icache.overall_miss_rate::total     0.017210                       # miss rate for overall accesses
system.l2.overall_hits::total                   59301                       # number of overall hits
system.l2.overall_misses::total                 12116                       # number of overall misses
system.l2.overall_accesses::total               71417                       # number of overall (read+write) accesses
system.l2.overall_miss_rate::total           0.169651                       # miss rate for overall accesses
---------- End Simulation Statistics   ----------
---------- Begin Simulation Statistics ----------
system.cpu0.dcache.overall_hits::total       21498176                       # number of overall hits
system.cpu0.dcache.overall_misses::total        32360                       # number of overall misses
system.cpu0.dcache.overall_accesses::total     21530536                       # number of overall (read+write) accesses
system.cpu0.dcache.overall_miss_rate::total     0.001503                       # miss rate for overall accesses
system.cpu0.icache.overall_hits::total       98808379                       # number of overall hits
system.cpu0.icache.overall_misses::total         8479                       # number of overall misses
system.cpu0.icache.overall_accesses::total     98816858                       # number of overall (read+write) accesses
system.cpu0.icache.overall_miss_rate::total     0.000086                       # miss rate for overall accesses
system.cpu1.dcache.overall_hits::total       20184223                       # number of overall hits
system.cpu1.dcache.overall_misses::total        22231                       # number of overall misses
system.cpu1.dcache.overall_accesses::total     20206454                       # number of overall (read+write) accesses
system.cpu1.dcache.overall_miss_rate::total     0.001100                       # miss rate for overall accesses
system.cpu1.icache.overall_hits::total       92739836                       # number of overall hits
system.cpu1.icache.overall_misses::total         9148                       # number of overall misses
system.cpu1.icache.overall_accesses::total     92748984                       # number of overall (read+write) accesses
system.cpu1.icache.overall_miss_rate::total     0.000099                       # miss rate for overall accesses
system.cpu2.dcache.overall_hits::total       22944360                       # number of overall hits
system.cpu2.dcache.overall_misses::total        43493                       # number of overall misses
system.cpu2.dcache.overall_accesses::total     22987853                       # number of overall (read+write) accesses
system.cpu2.dcache.overall_miss_rate::total     0.001892                       # miss rate for overall accesses
system.cpu2.icache.overall_hits::total      105555201                       # number of overall hits
system.cpu2.icache.overall_misses::total        11272                       # number of overall misses
system.cpu2.icache.overall_accesses::total    105566473                       # number of overall (read+write) accesses
system.cpu2.icache.overall_miss_rate::total     0.000107                       # miss rate for overall accesses
system.cpu3.dcache.overall_hits::total       21509036                       # number of overall hits
system.cpu3.dcache.overall_misses::total        28105                       # number of overall misses
system.cpu3.dcache.overall_accesses::total     21537141                       # number of overall (read+write) accesses
system.cpu3.dcache.overall_miss_rate::total     0.001305                       # miss rate for overall accesses
system.cpu3.icache.overall_hits::total       98828378                       # number of overall hits
system.cpu3.icache.overall_misses::total         8793                       # number of overall misses
system.cpu3.icache.overall_accesses::total     98837171                       # number of overall (read+write) accesses
system.cpu3.icache.overall_miss_rate::total     0.000089                       # miss rate for overall accesses
system.l2.overall_hits::total                  149646                       # number of overall hits
system.l2.overall_misses::total                 22112                       # number of overall misses
system.l2.overall_accesses::total              171758                       # number of overall (read+write) accesses
system.l2.overall_miss_rate::total           0.128739                       # miss rate for overall accesses
---------- End Simulation Statistics   ----------
---------- Begin Simulation Statistics ----------
system.cpu0.dcache.overall_hits::total          14607                       # number of overall hits
system.cpu0.dcache.overall_misses::total          596                       # number of overall misses
system.cpu0.dcache.overall_accesses::total        15203                       # number of overall (read+write) accesses
system.cpu0.dcache.overall_miss_rate::total     0.039203                       # miss rate for overall accesses
system.cpu0.icache.overall_hits::total          36765                       # number of overall hits
system.cpu0.icache.overall_misses::total          275                       # number of overall misses
system.cpu0.icache.overall_accesses::total        37040                       # number of overall (read+write) accesses
system.cpu0.icache.overall_miss_rate::total     0.007424                       # miss rate for overall accesses
system.cpu1.dcache.overall_hits::total        4967671                       # number of overall hits
system.cpu1.dcache.overall_misses::total         8172                       # number of overall misses
system.cpu1.dcache.overall_accesses::total      4975843                       # number of overall (read+write) accesses
system.cpu1.dcache.overall_miss_rate::total     0.001642                       # miss rate for overall accesses
system.cpu1.icache.overall_hits::total       16896008                       # number of overall hits
system.cpu1.icache.overall_misses::total        80819                       # number of overall misses
system.cpu1.icache.overall_accesses::total     16976827                       # number of overall (read+write) accesses
system.cpu1.icache.overall_miss_rate::total     0.004761                       # miss rate for overall accesses
system.cpu2.dcache.overall_hits::total          53755                       # number of overall hits
system.cpu2.dcache.overall_misses::total         2651                       # number of overall misses
system.cpu2.dcache.overall_accesses::total        56406                       # number of overall (read+write) accesses
system.cpu2.dcache.overall_miss_rate::total     0.046999                       # miss rate for overall accesses
system.cpu2.icache.overall_hits::total         154762                       # number of overall hits
system.cpu2.icache.overall_misses::total         1651                       # number of overall misses
system.cpu2.icache.overall_accesses::total       156413                       # number of overall (read+write) accesses
system.cpu2.icache.overall_miss_rate::total     0.010555                       # miss rate for overall accesses
system.cpu3.dcache.overall_hits::total          16482                       # number of overall hits
system.cpu3.dcache.overall_misses::total          672                       # number of overall misses
system.cpu3.dcache.overall_accesses::total        17154                       # number of overall (read+write) accesses
system.cpu3.dcache.overall_miss_rate::total     0.039175                       # miss rate for overall accesses
system.cpu3.icache.overall_hits::total          41749                       # number of overall hits
system.cpu3.icache.overall_misses::total          360                       # number of overall misses
system.cpu3.icache.overall_accesses::total        42109                       # number of overall (read+write) accesses
system.cpu3.icache.overall_miss_rate::total     0.008549                       # miss rate for overall accesses
system.l2.overall_hits::total                   88482                       # number of overall hits
system.l2.overall_misses::total                  4379                       # number of overall misses
system.l2.overall_accesses::total               92861                       # number of overall (read+write) accesses
system.l2.overall_miss_rate::total           0.047157                       # miss rate for overall accesses
---------- End Simulation Statistics   ----------
