---------- Begin Simulation Statistics ----------
system.cpu0.dcache.overall_hits::total       23018269                       # number of overall hits
system.cpu0.dcache.overall_misses::total      2012145                       # number of overall misses
system.cpu0.dcache.overall_accesses::total     25030414                       # number of overall (read+write) accesses
system.cpu0.dcache.overall_miss_rate::total     0.080388                       # miss rate for overall accesses
system.cpu0.icache.overall_hits::total      283107699                       # number of overall hits
system.cpu0.icache.overall_misses::total       622260                       # number of overall misses
system.cpu0.icache.overall_accesses::total    283729959                       # number of overall (read+write) accesses
system.cpu0.icache.overall_miss_rate::total     0.002193                       # miss rate for overall accesses
system.cpu1.dcache.overall_hits::total        2643456                       # number of overall hits
system.cpu1.dcache.overall_misses::total       386233                       # number of overall misses
system.cpu1.dcache.overall_accesses::total      3029689                       # number of overall (read+write) accesses
system.cpu1.dcache.overall_miss_rate::total     0.127483                       # miss rate for overall accesses
system.cpu1.icache.overall_hits::total       13686126                       # number of overall hits
system.cpu1.icache.overall_misses::total        44604                       # number of overall misses
system.cpu1.icache.overall_accesses::total     13730730                       # number of overall (read+write) accesses
system.cpu1.icache.overall_miss_rate::total     0.003248                       # miss rate for overall accesses
system.cpu2.dcache.overall_hits::total        2182577                       # number of overall hits
system.cpu2.dcache.overall_misses::total        57087                       # number of overall misses
system.cpu2.dcache.overall_accesses::total      2239664                       # number of overall (read+write) accesses
system.cpu2.dcache.overall_miss_rate::total     0.025489                       # miss rate for overall accesses
system.cpu2.icache.overall_hits::total        8091886                       # number of overall hits
system.cpu2.icache.overall_misses::total        47951                       # number of overall misses
system.cpu2.icache.overall_accesses::total      8139837                       # number of overall (read+write) accesses
system.cpu2.icache.overall_miss_rate::total     0.005891                       # miss rate for overall accesses
system.cpu3.dcache.overall_hits::total        2316152                       # number of overall hits
system.cpu3.dcache.overall_misses::total        64152                       # number of overall misses
system.cpu3.dcache.overall_accesses::total      2380304                       # number of overall (read+write) accesses
system.cpu3.dcache.overall_miss_rate::total     0.026951                       # miss rate for overall accesses
system.cpu3.icache.overall_hits::total        7818440                       # number of overall hits
system.cpu3.icache.overall_misses::total        44960                       # number of overall misses
system.cpu3.icache.overall_accesses::total      7863400                       # number of overall (read+write) accesses
system.cpu3.icache.overall_miss_rate::total     0.005718                       # miss rate for overall accesses
system.l2.overall_hits::total                 2300011                       # number of overall hits
system.l2.overall_misses::total                605264                       # number of overall misses
system.l2.overall_accesses::total             2905275                       # number of overall (read+write) accesses
system.l2.overall_miss_rate::total           0.208333                       # miss rate for overall accesses
---------- End Simulation Statistics   ----------
---------- Begin Simulation Statistics ----------
system.cpu0.dcache.overall_hits::total         433941                       # number of overall hits
system.cpu0.dcache.overall_misses::total        10802                       # number of overall misses
system.cpu0.dcache.overall_accesses::total       444743                       # number of overall (read+write) accesses
system.cpu0.dcache.overall_miss_rate::total     0.024288                       # miss rate for overall accesses
system.cpu0.icache.overall_hits::total        1128677                       # number of overall hits
system.cpu0.icache.overall_misses::total         8081                       # number of overall misses
system.cpu0.icache.overall_accesses::total      1136758                       # number of overall (read+write) accesses
system.cpu0.icache.overall_miss_rate::total     0.007109                       # miss rate for overall accesses
system.cpu1.dcache.overall_hits::total         469071                       # number of overall hits
system.cpu1.dcache.overall_misses::total        11836                       # number of overall misses
system.cpu1.dcache.overall_accesses::total       480907                       # number of overall (read+write) accesses
system.cpu1.dcache.overall_miss_rate::total     0.024612                       # miss rate for overall accesses
system.cpu1.icache.overall_hits::total        1227906                       # number of overall hits
system.cpu1.icache.overall_misses::total         8339                       # number of overall misses
system.cpu1.icache.overall_accesses::total      1236245                       # number of overall (read+write) accesses
system.cpu1.icache.overall_miss_rate::total     0.006745                       # miss rate for overall accesses
system.cpu2.dcache.overall_hits::total       17841499                       # number of overall hits
system.cpu2.dcache.overall_misses::total       427892                       # number of overall misses
system.cpu2.dcache.overall_accesses::total     18269391                       # number of overall (read+write) accesses
system.cpu2.dcache.overall_miss_rate::total     0.023421                       # miss rate for overall accesses
system.cpu2.icache.overall_hits::total       54966680                       # number of overall hits
system.cpu2.icache.overall_misses::total        62330                       # number of overall misses
system.cpu2.icache.overall_accesses::total     55029010                       # number of overall (read+write) accesses
system.cpu2.icache.overall_miss_rate::total     0.001133                       # miss rate for overall accesses
system.cpu3.dcache.overall_hits::total      445481973                       # number of overall hits
system.cpu3.dcache.overall_misses::total     17005618                       # number of overall misses
system.cpu3.dcache.overall_accesses::total    462487591                       # number of overall (read+write) accesses
system.cpu3.dcache.overall_miss_rate::total     0.036770                       # miss rate for overall accesses
system.cpu3.icache.overall_hits::total     1456967107                       # number of overall hits
system.cpu3.icache.overall_misses::total      3757471                       # number of overall misses
system.cpu3.icache.overall_accesses::total   1460724578                       # number of overall (read+write) accesses
system.cpu3.icache.overall_miss_rate::total     0.002572                       # miss rate for overall accesses
system.l2.overall_hits::total                41092125                       # number of overall hits
system.l2.overall_misses::total               7648842                       # number of overall misses
system.l2.overall_accesses::total            48740967                       # number of overall (read+write) accesses
system.l2.overall_miss_rate::total           0.156928                       # miss rate for overall accesses
---------- End Simulation Statistics   ----------
---------- Begin Simulation Statistics ----------
system.cpu0.dcache.overall_hits::total       21136050                       # number of overall hits
system.cpu0.dcache.overall_misses::total      1547053                       # number of overall misses
system.cpu0.dcache.overall_accesses::total     22683103                       # number of overall (read+write) accesses
system.cpu0.dcache.overall_miss_rate::total     0.068203                       # miss rate for overall accesses
system.cpu0.icache.overall_hits::total       88693515                       # number of overall hits
system.cpu0.icache.overall_misses::total        25417                       # number of overall misses
system.cpu0.icache.overall_accesses::total     88718932                       # number of overall (read+write) accesses
system.cpu0.icache.overall_miss_rate::total     0.000286                       # miss rate for overall accesses
system.cpu1.dcache.overall_hits::total       23559390                       # number of overall hits
system.cpu1.dcache.overall_misses::total      1723919                       # number of overall misses
system.cpu1.dcache.overall_accesses::total     25283309                       # number of overall (read+write) accesses
system.cpu1.dcache.overall_miss_rate::total     0.068184                       # miss rate for overall accesses
system.cpu1.icache.overall_hits::total       99364141                       # number of overall hits
system.cpu1.icache.overall_misses::total        37492                       # number of overall misses
system.cpu1.icache.overall_accesses::total     99401633                       # number of overall (read+write) accesses
system.cpu1.icache.overall_miss_rate::total     0.000377                       # miss rate for overall accesses
system.cpu2.dcache.overall_hits::total       21528783                       # number of overall hits
system.cpu2.dcache.overall_misses::total      1571888                       # number of overall misses
system.cpu2.dcache.overall_accesses::total     23100671                       # number of overall (read+write) accesses
system.cpu2.dcache.overall_miss_rate::total     0.068045                       # miss rate for overall accesses
system.cpu2.icache.overall_hits::total       90617308                       # number of overall hits
system.cpu2.icache.overall_misses::total        34796                       # number of overall misses
system.cpu2.icache.overall_accesses::total     90652104                       # number of overall (read+write) accesses
system.cpu2.icache.overall_miss_rate::total     0.000384                       # miss rate for overall accesses
system.cpu3.dcache.overall_hits::total       18579662                       # number of overall hits
system.cpu3.dcache.overall_misses::total      1365931                       # number of overall misses
system.cpu3.dcache.overall_accesses::total     19945593                       # number of overall (read+write) accesses
system.cpu3.dcache.overall_miss_rate::total     0.068483                       # miss rate for overall accesses
system.cpu3.icache.overall_hits::total       78258954                       # number of overall hits
system.cpu3.icache.overall_misses::total        25184                       # number of overall misses
system.cpu3.icache.overall_accesses::total     78284138                       # number of overall (read+write) accesses
system.cpu3.icache.overall_miss_rate::total     0.000322                       # miss rate for overall accesses
system.l2.overall_hits::total                14327971                       # number of overall hits
system.l2.overall_misses::total               4053706                       # number of overall misses
system.l2.overall_accesses::total            18381677                       # number of overall (read+write) accesses
system.l2.overall_miss_rate::total           0.220530                       # miss rate for overall accesses
---------- End Simulation Statistics   ----------
---------- Begin Simulation Statistics ----------
system.cpu0.dcache.overall_hits::total          38388                       # number of overall hits
system.cpu0.dcache.overall_misses::total         1085                       # number of overall misses
system.cpu0.dcache.overall_accesses::total        39473                       # number of overall (read+write) accesses
system.cpu0.dcache.overall_miss_rate::total     0.027487                       # miss rate for overall accesses
system.cpu0.icache.overall_hits::total          97805                       # number of overall hits
system.cpu0.icache.overall_misses::total          316                       # number of overall misses
system.cpu0.icache.overall_accesses::total        98121                       # number of overall (read+write) accesses
system.cpu0.icache.overall_miss_rate::total     0.003221                       # miss rate for overall accesses
system.cpu1.dcache.overall_hits::total       30439237                       # number of overall hits
system.cpu1.dcache.overall_misses::total      4534189                       # number of overall misses
system.cpu1.dcache.overall_accesses::total     34973426                       # number of overall (read+write) accesses
system.cpu1.dcache.overall_miss_rate::total     0.129647                       # miss rate for overall accesses
system.cpu1.icache.overall_hits::total      116146776                       # number of overall hits
system.cpu1.icache.overall_misses::total         3906                       # number of overall misses
system.cpu1.icache.overall_accesses::total    116150682                       # number of overall (read+write) accesses
system.cpu1.icache.overall_miss_rate::total     0.000034                       # miss rate for overall accesses
system.cpu2.dcache.overall_hits::total          77777                       # number of overall hits
system.cpu2.dcache.overall_misses::total         3368                       # number of overall misses
system.cpu2.dcache.overall_accesses::total        81145                       # number of overall (read+write) accesses
system.cpu2.dcache.overall_miss_rate::total     0.041506                       # miss rate for overall accesses
system.cpu2.icache.overall_hits::total         217564                       # number of overall hits
system.cpu2.icache.overall_misses::total         1841                       # number of overall misses
system.cpu2.icache.overall_accesses::total       219405                       # number of overall (read+write) accesses
system.cpu2.icache.overall_miss_rate::total     0.008391                       # miss rate for overall accesses
system.cpu3.dcache.overall_hits::total          39156                       # number of overall hits
system.cpu3.dcache.overall_misses::total         1269                       # number of overall misses
system.cpu3.dcache.overall_accesses::total        40425                       # number of overall (read+write) accesses
system.cpu3.dcache.overall_miss_rate::total     0.031391                       # miss rate for overall accesses
system.cpu3.icache.overall_hits::total         100363                       # number of overall hits
system.cpu3.icache.overall_misses::total          376                       # number of overall misses
system.cpu3.icache.overall_accesses::total       100739                       # number of overall (read+write) accesses
system.cpu3.icache.overall_miss_rate::total     0.003732                       # miss rate for overall accesses
system.l2.overall_hits::total                 8130642                       # number of overall hits
system.l2.overall_misses::total               3587234                       # number of overall misses
system.l2.overall_accesses::total            11717876                       # number of overall (read+write) accesses
system.l2.overall_miss_rate::total           0.306133                       # miss rate for overall accesses
---------- End Simulation Statistics   ----------
