---------- Begin Simulation Statistics ----------
system.cpu0.dcache.overall_hits::total       23017302                       # number of overall hits
system.cpu0.dcache.overall_misses::total      2013112                       # number of overall misses
system.cpu0.dcache.overall_accesses::total     25030414                       # number of overall (read+write) accesses
system.cpu0.dcache.overall_miss_rate::total     0.080427                       # miss rate for overall accesses
system.cpu0.icache.overall_hits::total      283107654                       # number of overall hits
system.cpu0.icache.overall_misses::total       622305                       # number of overall misses
system.cpu0.icache.overall_accesses::total    283729959                       # number of overall (read+write) accesses
system.cpu0.icache.overall_miss_rate::total     0.002193                       # miss rate for overall accesses
system.cpu1.dcache.overall_hits::total        2643430                       # number of overall hits
system.cpu1.dcache.overall_misses::total       386259                       # number of overall misses
system.cpu1.dcache.overall_accesses::total      3029689                       # number of overall (read+write) accesses
system.cpu1.dcache.overall_miss_rate::total     0.127491                       # miss rate for overall accesses
system.cpu1.icache.overall_hits::total       13686127                       # number of overall hits
system.cpu1.icache.overall_misses::total        44603                       # number of overall misses
system.cpu1.icache.overall_accesses::total     13730730                       # number of overall (read+write) accesses
system.cpu1.icache.overall_miss_rate::total     0.003248                       # miss rate for overall accesses
system.cpu2.dcache.overall_hits::total        2182554                       # number of overall hits
system.cpu2.dcache.overall_misses::total        57110                       # number of overall misses
system.cpu2.dcache.overall_accesses::total      2239664                       # number of overall (read+write) accesses
system.cpu2.dcache.overall_miss_rate::total     0.025499                       # miss rate for overall accesses
system.cpu2.icache.overall_hits::total        8091889                       # number of overall hits
system.cpu2.icache.overall_misses::total        47948                       # number of overall misses
system.cpu2.icache.overall_accesses::total      8139837                       # number of overall (read+write) accesses
system.cpu2.icache.overall_miss_rate::total     0.005891                       # miss rate for overall accesses
system.cpu3.dcache.overall_hits::total        2316139                       # number of overall hits
system.cpu3.dcache.overall_misses::total        64187                       # number of overall misses
system.cpu3.dcache.overall_accesses::total      2380326                       # number of overall (read+write) accesses
system.cpu3.dcache.overall_miss_rate::total     0.026966                       # miss rate for overall accesses
system.cpu3.icache.overall_hits::total        7818487                       # number of overall hits
system.cpu3.icache.overall_misses::total        44965                       # number of overall misses
system.cpu3.icache.overall_accesses::total      7863452                       # number of overall (read+write) accesses
system.cpu3.icache.overall_miss_rate::total     0.005718                       # miss rate for overall accesses
system.l2.overall_hits::total                 2295777                       # number of overall hits
system.l2.overall_misses::total                611762                       # number of overall misses
system.l2.overall_accesses::total             2907539                       # number of overall (read+write) accesses
system.l2.overall_miss_rate::total           0.210405                       # miss rate for overall accesses
---------- End Simulation Statistics   ----------
---------- Begin Simulation Statistics ----------
system.cpu0.dcache.overall_hits::total         789504                       # number of overall hits
system.cpu0.dcache.overall_misses::total        17109                       # number of overall misses
system.cpu0.dcache.overall_accesses::total       806613                       # number of overall (read+write) accesses
system.cpu0.dcache.overall_miss_rate::total     0.021211                       # miss rate for overall accesses
system.cpu0.icache.overall_hits::total        2692477                       # number of overall hits
system.cpu0.icache.overall_misses::total        15861                       # number of overall misses
system.cpu0.icache.overall_accesses::total      2708338                       # number of overall (read+write) accesses
system.cpu0.icache.overall_miss_rate::total     0.005856                       # miss rate for overall accesses
system.cpu1.dcache.overall_hits::total        4587599                       # number of overall hits
system.cpu1.dcache.overall_misses::total       183596                       # number of overall misses
system.cpu1.dcache.overall_accesses::total      4771195                       # number of overall (read+write) accesses
system.cpu1.dcache.overall_miss_rate::total     0.038480                       # miss rate for overall accesses
system.cpu1.icache.overall_hits::total       11988821                       # number of overall hits
system.cpu1.icache.overall_misses::total        39361                       # number of overall misses
system.cpu1.icache.overall_accesses::total     12028182                       # number of overall (read+write) accesses
system.cpu1.icache.overall_miss_rate::total     0.003272                       # miss rate for overall accesses
system.cpu2.dcache.overall_hits::total         472483                       # number of overall hits
system.cpu2.dcache.overall_misses::total        15220                       # number of overall misses
system.cpu2.dcache.overall_accesses::total       487703                       # number of overall (read+write) accesses
system.cpu2.dcache.overall_miss_rate::total     0.031208                       # miss rate for overall accesses
system.cpu2.icache.overall_hits::total        1431458                       # number of overall hits
system.cpu2.icache.overall_misses::total        18162                       # number of overall misses
system.cpu2.icache.overall_accesses::total      1449620                       # number of overall (read+write) accesses
system.cpu2.icache.overall_miss_rate::total     0.012529                       # miss rate for overall accesses
system.cpu3.dcache.overall_hits::total        1758560                       # number of overall hits
system.cpu3.dcache.overall_misses::total        27739                       # number of overall misses
system.cpu3.dcache.overall_accesses::total      1786299                       # number of overall (read+write) accesses
system.cpu3.dcache.overall_miss_rate::total     0.015529                       # miss rate for overall accesses
system.cpu3.icache.overall_hits::total        6808621                       # number of overall hits
system.cpu3.icache.overall_misses::total        14292                       # number of overall misses
system.cpu3.icache.overall_accesses::total      6822913                       # number of overall (read+write) accesses
system.cpu3.icache.overall_miss_rate::total     0.002095                       # miss rate for overall accesses
system.l2.overall_hits::total                  154978                       # number of overall hits
system.l2.overall_misses::total                167359                       # number of overall misses
system.l2.overall_accesses::total              322337                       # number of overall (read+write) accesses
system.l2.overall_miss_rate::total           0.519205                       # miss rate for overall accesses
---------- End Simulation Statistics   ----------
---------- Begin Simulation Statistics ----------
system.cpu0.dcache.overall_hits::total        2593909                       # number of overall hits
system.cpu0.dcache.overall_misses::total       135861                       # number of overall misses
system.cpu0.dcache.overall_accesses::total      2729770                       # number of overall (read+write) accesses
system.cpu0.dcache.overall_miss_rate::total     0.049770                       # miss rate for overall accesses
system.cpu0.icache.overall_hits::total        8734973                       # number of overall hits
system.cpu0.icache.overall_misses::total        65941                       # number of overall misses
system.cpu0.icache.overall_accesses::total      8800914                       # number of overall (read+write) accesses
system.cpu0.icache.overall_miss_rate::total     0.007493                       # miss rate for overall accesses
system.cpu1.dcache.overall_hits::total          65195                       # number of overall hits
system.cpu1.dcache.overall_misses::total         3018                       # number of overall misses
system.cpu1.dcache.overall_accesses::total        68213                       # number of overall (read+write) accesses
system.cpu1.dcache.overall_miss_rate::total     0.044244                       # miss rate for overall accesses
system.cpu1.icache.overall_hits::total         195874                       # number of overall hits
system.cpu1.icache.overall_misses::total         2689                       # number of overall misses
system.cpu1.icache.overall_accesses::total       198563                       # number of overall (read+write) accesses
system.cpu1.icache.overall_miss_rate::total     0.013542                       # miss rate for overall accesses
system.cpu2.dcache.overall_hits::total          33542                       # number of overall hits
system.cpu2.dcache.overall_misses::total         1385                       # number of overall misses
system.cpu2.dcache.overall_accesses::total        34927                       # number of overall (read+write) accesses
system.cpu2.dcache.overall_miss_rate::total     0.039654                       # miss rate for overall accesses
system.cpu2.icache.overall_hits::total          87570                       # number of overall hits
system.cpu2.icache.overall_misses::total         1056                       # number of overall misses
system.cpu2.icache.overall_accesses::total        88626                       # number of overall (read+write) accesses
system.cpu2.icache.overall_miss_rate::total     0.011915                       # miss rate for overall accesses
system.cpu3.dcache.overall_hits::total          30040                       # number of overall hits
system.cpu3.dcache.overall_misses::total          732                       # number of overall misses
system.cpu3.dcache.overall_accesses::total        30772                       # number of overall (read+write) accesses
system.cpu3.dcache.overall_miss_rate::total     0.023788                       # miss rate for overall accesses
system.cpu3.icache.overall_hits::total          84707                       # number of overall hits
system.cpu3.icache.overall_misses::total         1067                       # number of overall misses
system.cpu3.icache.overall_accesses::total        85774                       # number of overall (read+write) accesses
system.cpu3.icache.overall_miss_rate::total     0.012440                       # miss rate for overall accesses
system.l2.overall_hits::total                  130474                       # number of overall hits
system.l2.overall_misses::total                103673                       # number of overall misses
system.l2.overall_accesses::total              234147                       # number of overall (read+write) accesses
system.l2.overall_miss_rate::total           0.442769                       # miss rate for overall accesses
---------- End Simulation Statistics   ----------
