---------- Begin Simulation Statistics ----------
system.cpu0.dcache.overall_hits::total       23017302                       # number of overall hits
system.cpu0.dcache.overall_misses::total      2013112                       # number of overall misses
system.cpu0.dcache.overall_accesses::total     25030414                       # number of overall (read+write) accesses
system.cpu0.dcache.overall_miss_rate::total     0.080427                       # miss rate for overall accesses
system.cpu0.icache.overall_hits::total      283107654                       # number of overall hits
system.cpu0.icache.overall_misses::total       622305                       # number of overall misses
system.cpu0.icache.overall_accesses::total    283729959                       # number of overall (read+write) accesses
system.cpu0.icache.overall_miss_rate::total     0.002193                       # miss rate for overall accesses
system.cpu1.dcache.overall_hits::total        2643430                       # number of overall hits
system.cpu1.dcache.overall_misses::total       386259                       # number of overall misses
system.cpu1.dcache.overall_accesses::total      3029689                       # number of overall (read+write) accesses
system.cpu1.dcache.overall_miss_rate::total     0.127491                       # miss rate for overall accesses
system.cpu1.icache.overall_hits::total       13686127                       # number of overall hits
system.cpu1.icache.overall_misses::total        44603                       # number of overall misses
system.cpu1.icache.overall_accesses::total     13730730                       # number of overall (read+write) accesses
system.cpu1.icache.overall_miss_rate::total     0.003248                       # miss rate for overall accesses
system.cpu2.dcache.overall_hits::total        2182554                       # number of overall hits
system.cpu2.dcache.overall_misses::total        57110                       # number of overall misses
system.cpu2.dcache.overall_accesses::total      2239664                       # number of overall (read+write) accesses
system.cpu2.dcache.overall_miss_rate::total     0.025499                       # miss rate for overall accesses
system.cpu2.icache.overall_hits::total        8091889                       # number of overall hits
system.cpu2.icache.overall_misses::total        47948                       # number of overall misses
system.cpu2.icache.overall_accesses::total      8139837                       # number of overall (read+write) accesses
system.cpu2.icache.overall_miss_rate::total     0.005891                       # miss rate for overall accesses
system.cpu3.dcache.overall_hits::total        2316217                       # number of overall hits
system.cpu3.dcache.overall_misses::total        64187                       # number of overall misses
system.cpu3.dcache.overall_accesses::total      2380404                       # number of overall (read+write) accesses
system.cpu3.dcache.overall_miss_rate::total     0.026965                       # miss rate for overall accesses
system.cpu3.icache.overall_hits::total        7818667                       # number of overall hits
system.cpu3.icache.overall_misses::total        44965                       # number of overall misses
system.cpu3.icache.overall_accesses::total      7863632                       # number of overall (read+write) accesses
system.cpu3.icache.overall_miss_rate::total     0.005718                       # miss rate for overall accesses
system.l2.overall_hits::total                 2295777                       # number of overall hits
system.l2.overall_misses::total                611762                       # number of overall misses
system.l2.overall_accesses::total             2907539                       # number of overall (read+write) accesses
system.l2.overall_miss_rate::total           0.210405                       # miss rate for overall accesses
---------- End Simulation Statistics   ----------
---------- Begin Simulation Statistics ----------
system.cpu0.dcache.overall_hits::total         799445                       # number of overall hits
system.cpu0.dcache.overall_misses::total         3670                       # number of overall misses
system.cpu0.dcache.overall_accesses::total       803115                       # number of overall (read+write) accesses
system.cpu0.dcache.overall_miss_rate::total     0.004570                       # miss rate for overall accesses
system.cpu0.icache.overall_hits::total        3249463                       # number of overall hits
system.cpu0.icache.overall_misses::total         5924                       # number of overall misses
system.cpu0.icache.overall_accesses::total      3255387                       # number of overall (read+write) accesses
system.cpu0.icache.overall_miss_rate::total     0.001820                       # miss rate for overall accesses
system.cpu1.dcache.overall_hits::total         105044                       # number of overall hits
system.cpu1.dcache.overall_misses::total         3962                       # number of overall misses
system.cpu1.dcache.overall_accesses::total       109006                       # number of overall (read+write) accesses
system.cpu1.dcache.overall_miss_rate::total     0.036347                       # miss rate for overall accesses
system.cpu1.icache.overall_hits::total         301852                       # number of overall hits
system.cpu1.icache.overall_misses::total         4787                       # number of overall misses
system.cpu1.icache.overall_accesses::total       306639                       # number of overall (read+write) accesses
system.cpu1.icache.overall_miss_rate::total     0.015611                       # miss rate for overall accesses
system.cpu2.dcache.overall_hits::total       10650158                       # number of overall hits
system.cpu2.dcache.overall_misses::total        20242                       # number of overall misses
system.cpu2.dcache.overall_accesses::total     10670400                       # number of overall (read+write) accesses
system.cpu2.dcache.overall_miss_rate::total     0.001897                       # miss rate for overall accesses
system.cpu2.icache.overall_hits::total       44767432                       # number of overall hits
system.cpu2.icache.overall_misses::total        31434                       # number of overall misses
system.cpu2.icache.overall_accesses::total     44798866                       # number of overall (read+write) accesses
system.cpu2.icache.overall_miss_rate::total     0.000702                       # miss rate for overall accesses
system.cpu3.dcache.overall_hits::total         111552                       # number of overall hits
system.cpu3.dcache.overall_misses::total         4488                       # number of overall misses
system.cpu3.dcache.overall_accesses::total       116040                       # number of overall (read+write) accesses
system.cpu3.dcache.overall_miss_rate::total     0.038676                       # miss rate for overall accesses
system.cpu3.icache.overall_hits::total         331098                       # number of overall hits
system.cpu3.icache.overall_misses::total         5798                       # number of overall misses
system.cpu3.icache.overall_accesses::total       336896                       # number of overall (read+write) accesses
system.cpu3.icache.overall_miss_rate::total     0.017210                       # miss rate for overall accesses
system.l2.overall_hits::total                   59543                       # number of overall hits
system.l2.overall_misses::total                 12499                       # number of overall misses
system.l2.overall_accesses::total               72042                       # number of overall (read+write) accesses
system.l2.overall_miss_rate::total           0.173496                       # miss rate for overall accesses
---------- End Simulation Statistics   ----------
---------- Begin Simulation Statistics ----------
system.cpu0.dcache.overall_hits::total       21490093                       # number of overall hits
system.cpu0.dcache.overall_misses::total        40443                       # number of overall misses
system.cpu0.dcache.overall_accesses::total     21530536                       # number of overall (read+write) accesses
system.cpu0.dcache.overall_miss_rate::total     0.001878                       # miss rate for overall accesses
system.cpu0.icache.overall_hits::total       98808378                       # number of overall hits
system.cpu0.icache.overall_misses::total         8480                       # number of overall misses
system.cpu0.icache.overall_accesses::total     98816858                       # number of overall (read+write) accesses
system.cpu0.icache.overall_miss_rate::total     0.000086                       # miss rate for overall accesses
system.cpu1.dcache.overall_hits::total       20178297                       # number of overall hits
system.cpu1.dcache.overall_misses::total        28157                       # number of overall misses
system.cpu1.dcache.overall_accesses::total     20206454                       # number of overall (read+write) accesses
system.cpu1.dcache.overall_miss_rate::total     0.001393                       # miss rate for overall accesses
system.cpu1.icache.overall_hits::total       92739832                       # number of overall hits
system.cpu1.icache.overall_misses::total         9152                       # number of overall misses
system.cpu1.icache.overall_accesses::total     92748984                       # number of overall (read+write) accesses
system.cpu1.icache.overall_miss_rate::total     0.000099                       # miss rate for overall accesses
system.cpu2.dcache.overall_hits::total       22929677                       # number of overall hits
system.cpu2.dcache.overall_misses::total        58176                       # number of overall misses
system.cpu2.dcache.overall_accesses::total     22987853                       # number of overall (read+write) accesses
system.cpu2.dcache.overall_miss_rate::total     0.002531                       # miss rate for overall accesses
system.cpu2.icache.overall_hits::total      105555200                       # number of overall hits
system.cpu2.icache.overall_misses::total        11275                       # number of overall misses
system.cpu2.icache.overall_accesses::total    105566475                       # number of overall (read+write) accesses
system.cpu2.icache.overall_miss_rate::total     0.000107                       # miss rate for overall accesses
system.cpu3.dcache.overall_hits::total       21505511                       # number of overall hits
system.cpu3.dcache.overall_misses::total        31630                       # number of overall misses
system.cpu3.dcache.overall_accesses::total     21537141                       # number of overall (read+write) accesses
system.cpu3.dcache.overall_miss_rate::total     0.001469                       # miss rate for overall accesses
system.cpu3.icache.overall_hits::total       98828376                       # number of overall hits
system.cpu3.icache.overall_misses::total         8795                       # number of overall misses
system.cpu3.icache.overall_accesses::total     98837171                       # number of overall (read+write) accesses
system.cpu3.icache.overall_miss_rate::total     0.000089                       # miss rate for overall accesses
system.l2.overall_hits::total                  181825                       # number of overall hits
system.l2.overall_misses::total                 22827                       # number of overall misses
system.l2.overall_accesses::total              204652                       # number of overall (read+write) accesses
system.l2.overall_miss_rate::total           0.111541                       # miss rate for overall accesses
---------- End Simulation Statistics   ----------
---------- Begin Simulation Statistics ----------
system.cpu0.dcache.overall_hits::total          14600                       # number of overall hits
system.cpu0.dcache.overall_misses::total          603                       # number of overall misses
system.cpu0.dcache.overall_accesses::total        15203                       # number of overall (read+write) accesses
system.cpu0.dcache.overall_miss_rate::total     0.039663                       # miss rate for overall accesses
system.cpu0.icache.overall_hits::total          36765                       # number of overall hits
system.cpu0.icache.overall_misses::total          275                       # number of overall misses
system.cpu0.icache.overall_accesses::total        37040                       # number of overall (read+write) accesses
system.cpu0.icache.overall_miss_rate::total     0.007424                       # miss rate for overall accesses
system.cpu1.dcache.overall_hits::total        4967669                       # number of overall hits
system.cpu1.dcache.overall_misses::total         8174                       # number of overall misses
system.cpu1.dcache.overall_accesses::total      4975843                       # number of overall (read+write) accesses
system.cpu1.dcache.overall_miss_rate::total     0.001643                       # miss rate for overall accesses
system.cpu1.icache.overall_hits::total       16896009                       # number of overall hits
system.cpu1.icache.overall_misses::total        80818                       # number of overall misses
system.cpu1.icache.overall_accesses::total     16976827                       # number of overall (read+write) accesses
system.cpu1.icache.overall_miss_rate::total     0.004760                       # miss rate for overall accesses
system.cpu2.dcache.overall_hits::total          53756                       # number of overall hits
system.cpu2.dcache.overall_misses::total         2650                       # number of overall misses
system.cpu2.dcache.overall_accesses::total        56406                       # number of overall (read+write) accesses
system.cpu2.dcache.overall_miss_rate::total     0.046981                       # miss rate for overall accesses
system.cpu2.icache.overall_hits::total         154761                       # number of overall hits
system.cpu2.icache.overall_misses::total         1652                       # number of overall misses
system.cpu2.icache.overall_accesses::total       156413                       # number of overall (read+write) accesses
system.cpu2.icache.overall_miss_rate::total     0.010562                       # miss rate for overall accesses
system.cpu3.dcache.overall_hits::total          16483                       # number of overall hits
system.cpu3.dcache.overall_misses::total          671                       # number of overall misses
system.cpu3.dcache.overall_accesses::total        17154                       # number of overall (read+write) accesses
system.cpu3.dcache.overall_miss_rate::total     0.039116                       # miss rate for overall accesses
system.cpu3.icache.overall_hits::total          41749                       # number of overall hits
system.cpu3.icache.overall_misses::total          360                       # number of overall misses
system.cpu3.icache.overall_accesses::total        42109                       # number of overall (read+write) accesses
system.cpu3.icache.overall_miss_rate::total     0.008549                       # miss rate for overall accesses
system.l2.overall_hits::total                   88034                       # number of overall hits
system.l2.overall_misses::total                  4852                       # number of overall misses
system.l2.overall_accesses::total               92886                       # number of overall (read+write) accesses
system.l2.overall_miss_rate::total           0.052236                       # miss rate for overall accesses
---------- End Simulation Statistics   ----------
