---------- Begin Simulation Statistics ----------
system.cpu0.dcache.overall_hits::total       23017021                       # number of overall hits
system.cpu0.dcache.overall_misses::total      2013116                       # number of overall misses
system.cpu0.dcache.overall_accesses::total     25030137                       # number of overall (read+write) accesses
system.cpu0.dcache.overall_miss_rate::total     0.080428                       # miss rate for overall accesses
system.cpu0.icache.overall_hits::total      283106954                       # number of overall hits
system.cpu0.icache.overall_misses::total       622290                       # number of overall misses
system.cpu0.icache.overall_accesses::total    283729244                       # number of overall (read+write) accesses
system.cpu0.icache.overall_miss_rate::total     0.002193                       # miss rate for overall accesses
system.cpu1.dcache.overall_hits::total        2643545                       # number of overall hits
system.cpu1.dcache.overall_misses::total       386262                       # number of overall misses
system.cpu1.dcache.overall_accesses::total      3029807                       # number of overall (read+write) accesses
system.cpu1.dcache.overall_miss_rate::total     0.127487                       # miss rate for overall accesses
system.cpu1.icache.overall_hits::total       13686871                       # number of overall hits
system.cpu1.icache.overall_misses::total        44602                       # number of overall misses
system.cpu1.icache.overall_accesses::total     13731473                       # number of overall (read+write) accesses
system.cpu1.icache.overall_miss_rate::total     0.003248                       # miss rate for overall accesses
system.cpu2.dcache.overall_hits::total        2182554                       # number of overall hits
system.cpu2.dcache.overall_misses::total        57110                       # number of overall misses
system.cpu2.dcache.overall_accesses::total      2239664                       # number of overall (read+write) accesses
system.cpu2.dcache.overall_miss_rate::total     0.025499                       # miss rate for overall accesses
system.cpu2.icache.overall_hits::total        8091889                       # number of overall hits
system.cpu2.icache.overall_misses::total        47948                       # number of overall misses
system.cpu2.icache.overall_accesses::total      8139837                       # number of overall (read+write) accesses
system.cpu2.icache.overall_miss_rate::total     0.005891                       # miss rate for overall accesses
system.cpu3.dcache.overall_hits::total        2320252                       # number of overall hits
system.cpu3.dcache.overall_misses::total        64190                       # number of overall misses
system.cpu3.dcache.overall_accesses::total      2384442                       # number of overall (read+write) accesses
system.cpu3.dcache.overall_miss_rate::total     0.026920                       # miss rate for overall accesses
system.cpu3.icache.overall_hits::total        7830495                       # number of overall hits
system.cpu3.icache.overall_misses::total        45120                       # number of overall misses
system.cpu3.icache.overall_accesses::total      7875615                       # number of overall (read+write) accesses
system.cpu3.icache.overall_miss_rate::total     0.005729                       # miss rate for overall accesses
system.l2.overall_hits::total                 2295919                       # number of overall hits
system.l2.overall_misses::total                611767                       # number of overall misses
system.l2.overall_accesses::total             2907686                       # number of overall (read+write) accesses
system.l2.overall_miss_rate::total           0.210397                       # miss rate for overall accesses
---------- End Simulation Statistics   ----------
---------- Begin Simulation Statistics ----------
system.cpu0.dcache.overall_hits::total         237052                       # number of overall hits
system.cpu0.dcache.overall_misses::total        11488                       # number of overall misses
system.cpu0.dcache.overall_accesses::total       248540                       # number of overall (read+write) accesses
system.cpu0.dcache.overall_miss_rate::total     0.046222                       # miss rate for overall accesses
system.cpu0.icache.overall_hits::total         710961                       # number of overall hits
system.cpu0.icache.overall_misses::total        12119                       # number of overall misses
system.cpu0.icache.overall_accesses::total       723080                       # number of overall (read+write) accesses
system.cpu0.icache.overall_miss_rate::total     0.016760                       # miss rate for overall accesses
system.cpu1.dcache.overall_hits::total         159083                       # number of overall hits
system.cpu1.dcache.overall_misses::total         8824                       # number of overall misses
system.cpu1.dcache.overall_accesses::total       167907                       # number of overall (read+write) accesses
system.cpu1.dcache.overall_miss_rate::total     0.052553                       # miss rate for overall accesses
system.cpu1.icache.overall_hits::total         475684                       # number of overall hits
system.cpu1.icache.overall_misses::total        10299                       # number of overall misses
system.cpu1.icache.overall_accesses::total       485983                       # number of overall (read+write) accesses
system.cpu1.icache.overall_miss_rate::total     0.021192                       # miss rate for overall accesses
system.cpu2.dcache.overall_hits::total         223985                       # number of overall hits
system.cpu2.dcache.overall_misses::total         9153                       # number of overall misses
system.cpu2.dcache.overall_accesses::total       233138                       # number of overall (read+write) accesses
system.cpu2.dcache.overall_miss_rate::total     0.039260                       # miss rate for overall accesses
system.cpu2.icache.overall_hits::total         656791                       # number of overall hits
system.cpu2.icache.overall_misses::total        14024                       # number of overall misses
system.cpu2.icache.overall_accesses::total       670815                       # number of overall (read+write) accesses
system.cpu2.icache.overall_miss_rate::total     0.020906                       # miss rate for overall accesses
system.cpu3.dcache.overall_hits::total         103530                       # number of overall hits
system.cpu3.dcache.overall_misses::total         4072                       # number of overall misses
system.cpu3.dcache.overall_accesses::total       107602                       # number of overall (read+write) accesses
system.cpu3.dcache.overall_miss_rate::total     0.037843                       # miss rate for overall accesses
system.cpu3.icache.overall_hits::total         298662                       # number of overall hits
system.cpu3.icache.overall_misses::total         4377                       # number of overall misses
system.cpu3.icache.overall_accesses::total       303039                       # number of overall (read+write) accesses
system.cpu3.icache.overall_miss_rate::total     0.014444                       # miss rate for overall accesses
system.l2.overall_hits::total                   53217                       # number of overall hits
system.l2.overall_misses::total                  6688                       # number of overall misses
system.l2.overall_accesses::total               59905                       # number of overall (read+write) accesses
system.l2.overall_miss_rate::total           0.111643                       # miss rate for overall accesses
---------- End Simulation Statistics   ----------
