---------- Begin Simulation Statistics ----------
system.cpu0.dcache.overall_hits::total       23017302                       # number of overall hits
system.cpu0.dcache.overall_misses::total      2013112                       # number of overall misses
system.cpu0.dcache.overall_accesses::total     25030414                       # number of overall (read+write) accesses
system.cpu0.dcache.overall_miss_rate::total     0.080427                       # miss rate for overall accesses
system.cpu0.icache.overall_hits::total      283107654                       # number of overall hits
system.cpu0.icache.overall_misses::total       622305                       # number of overall misses
system.cpu0.icache.overall_accesses::total    283729959                       # number of overall (read+write) accesses
system.cpu0.icache.overall_miss_rate::total     0.002193                       # miss rate for overall accesses
system.cpu1.dcache.overall_hits::total        2643430                       # number of overall hits
system.cpu1.dcache.overall_misses::total       386259                       # number of overall misses
system.cpu1.dcache.overall_accesses::total      3029689                       # number of overall (read+write) accesses
system.cpu1.dcache.overall_miss_rate::total     0.127491                       # miss rate for overall accesses
system.cpu1.icache.overall_hits::total       13686127                       # number of overall hits
system.cpu1.icache.overall_misses::total        44603                       # number of overall misses
system.cpu1.icache.overall_accesses::total     13730730                       # number of overall (read+write) accesses
system.cpu1.icache.overall_miss_rate::total     0.003248                       # miss rate for overall accesses
system.cpu2.dcache.overall_hits::total        2182554                       # number of overall hits
system.cpu2.dcache.overall_misses::total        57110                       # number of overall misses
system.cpu2.dcache.overall_accesses::total      2239664                       # number of overall (read+write) accesses
system.cpu2.dcache.overall_miss_rate::total     0.025499                       # miss rate for overall accesses
system.cpu2.icache.overall_hits::total        8091889                       # number of overall hits
system.cpu2.icache.overall_misses::total        47948                       # number of overall misses
system.cpu2.icache.overall_accesses::total      8139837                       # number of overall (read+write) accesses
system.cpu2.icache.overall_miss_rate::total     0.005891                       # miss rate for overall accesses
system.cpu3.dcache.overall_hits::total        2316139                       # number of overall hits
system.cpu3.dcache.overall_misses::total        64187                       # number of overall misses
system.cpu3.dcache.overall_accesses::total      2380326                       # number of overall (read+write) accesses
system.cpu3.dcache.overall_miss_rate::total     0.026966                       # miss rate for overall accesses
system.cpu3.icache.overall_hits::total        7818487                       # number of overall hits
system.cpu3.icache.overall_misses::total        44965                       # number of overall misses
system.cpu3.icache.overall_accesses::total      7863452                       # number of overall (read+write) accesses
system.cpu3.icache.overall_miss_rate::total     0.005718                       # miss rate for overall accesses
system.l2.overall_hits::total                 2295777                       # number of overall hits
system.l2.overall_misses::total                611762                       # number of overall misses
system.l2.overall_accesses::total             2907539                       # number of overall (read+write) accesses
system.l2.overall_miss_rate::total           0.210405                       # miss rate for overall accesses
---------- End Simulation Statistics   ----------
---------- Begin Simulation Statistics ----------
system.cpu0.dcache.overall_hits::total        6593672                       # number of overall hits
system.cpu0.dcache.overall_misses::total       352219                       # number of overall misses
system.cpu0.dcache.overall_accesses::total      6945891                       # number of overall (read+write) accesses
system.cpu0.dcache.overall_miss_rate::total     0.050709                       # miss rate for overall accesses
system.cpu0.icache.overall_hits::total       16428064                       # number of overall hits
system.cpu0.icache.overall_misses::total        45199                       # number of overall misses
system.cpu0.icache.overall_accesses::total     16473263                       # number of overall (read+write) accesses
system.cpu0.icache.overall_miss_rate::total     0.002744                       # miss rate for overall accesses
system.cpu1.dcache.overall_hits::total       18665559                       # number of overall hits
system.cpu1.dcache.overall_misses::total       654290                       # number of overall misses
system.cpu1.dcache.overall_accesses::total     19319849                       # number of overall (read+write) accesses
system.cpu1.dcache.overall_miss_rate::total     0.033866                       # miss rate for overall accesses
system.cpu1.icache.overall_hits::total       48239101                       # number of overall hits
system.cpu1.icache.overall_misses::total       151560                       # number of overall misses
system.cpu1.icache.overall_accesses::total     48390661                       # number of overall (read+write) accesses
system.cpu1.icache.overall_miss_rate::total     0.003132                       # miss rate for overall accesses
system.cpu2.dcache.overall_hits::total        7473969                       # number of overall hits
system.cpu2.dcache.overall_misses::total       283616                       # number of overall misses
system.cpu2.dcache.overall_accesses::total      7757585                       # number of overall (read+write) accesses
system.cpu2.dcache.overall_miss_rate::total     0.036560                       # miss rate for overall accesses
system.cpu2.icache.overall_hits::total       19249171                       # number of overall hits
system.cpu2.icache.overall_misses::total        67488                       # number of overall misses
system.cpu2.icache.overall_accesses::total     19316659                       # number of overall (read+write) accesses
system.cpu2.icache.overall_miss_rate::total     0.003494                       # miss rate for overall accesses
system.cpu3.dcache.overall_hits::total       36301870                       # number of overall hits
system.cpu3.dcache.overall_misses::total       968500                       # number of overall misses
system.cpu3.dcache.overall_accesses::total     37270370                       # number of overall (read+write) accesses
system.cpu3.dcache.overall_miss_rate::total     0.025986                       # miss rate for overall accesses
system.cpu3.icache.overall_hits::total      129970121                       # number of overall hits
system.cpu3.icache.overall_misses::total       113127                       # number of overall misses
system.cpu3.icache.overall_accesses::total    130083248                       # number of overall (read+write) accesses
system.cpu3.icache.overall_miss_rate::total     0.000870                       # miss rate for overall accesses
system.l2.overall_hits::total                 1249026                       # number of overall hits
system.l2.overall_misses::total               1789635                       # number of overall misses
system.l2.overall_accesses::total             3038661                       # number of overall (read+write) accesses
system.l2.overall_miss_rate::total           0.588955                       # miss rate for overall accesses
---------- End Simulation Statistics   ----------
---------- Begin Simulation Statistics ----------
system.cpu0.dcache.overall_hits::total         107414                       # number of overall hits
system.cpu0.dcache.overall_misses::total         3315                       # number of overall misses
system.cpu0.dcache.overall_accesses::total       110729                       # number of overall (read+write) accesses
system.cpu0.dcache.overall_miss_rate::total     0.029938                       # miss rate for overall accesses
system.cpu0.icache.overall_hits::total         318690                       # number of overall hits
system.cpu0.icache.overall_misses::total         3768                       # number of overall misses
system.cpu0.icache.overall_accesses::total       322458                       # number of overall (read+write) accesses
system.cpu0.icache.overall_miss_rate::total     0.011685                       # miss rate for overall accesses
system.cpu1.dcache.overall_hits::total        4470256                       # number of overall hits
system.cpu1.dcache.overall_misses::total       162421                       # number of overall misses
system.cpu1.dcache.overall_accesses::total      4632677                       # number of overall (read+write) accesses
system.cpu1.dcache.overall_miss_rate::total     0.035060                       # miss rate for overall accesses
system.cpu1.icache.overall_hits::total       15553684                       # number of overall hits
system.cpu1.icache.overall_misses::total        68995                       # number of overall misses
system.cpu1.icache.overall_accesses::total     15622679                       # number of overall (read+write) accesses
system.cpu1.icache.overall_miss_rate::total     0.004416                       # miss rate for overall accesses
system.cpu2.dcache.overall_hits::total         143790                       # number of overall hits
system.cpu2.dcache.overall_misses::total         5942                       # number of overall misses
system.cpu2.dcache.overall_accesses::total       149732                       # number of overall (read+write) accesses
system.cpu2.dcache.overall_miss_rate::total     0.039684                       # miss rate for overall accesses
system.cpu2.icache.overall_hits::total         428909                       # number of overall hits
system.cpu2.icache.overall_misses::total         6022                       # number of overall misses
system.cpu2.icache.overall_accesses::total       434931                       # number of overall (read+write) accesses
system.cpu2.icache.overall_miss_rate::total     0.013846                       # miss rate for overall accesses
system.cpu3.dcache.overall_hits::total        1672167                       # number of overall hits
system.cpu3.dcache.overall_misses::total        26828                       # number of overall misses
system.cpu3.dcache.overall_accesses::total      1698995                       # number of overall (read+write) accesses
system.cpu3.dcache.overall_miss_rate::total     0.015791                       # miss rate for overall accesses
system.cpu3.icache.overall_hits::total        5544087                       # number of overall hits
system.cpu3.icache.overall_misses::total        15266                       # number of overall misses
system.cpu3.icache.overall_accesses::total      5559353                       # number of overall (read+write) accesses
system.cpu3.icache.overall_miss_rate::total     0.002746                       # miss rate for overall accesses
system.l2.overall_hits::total                  174552                       # number of overall hits
system.l2.overall_misses::total                137595                       # number of overall misses
system.l2.overall_accesses::total              312147                       # number of overall (read+write) accesses
system.l2.overall_miss_rate::total           0.440802                       # miss rate for overall accesses
---------- End Simulation Statistics   ----------
