---------- Begin Simulation Statistics ----------
system.cpu0.dcache.overall_hits::total       23017302                       # number of overall hits
system.cpu0.dcache.overall_misses::total      2013112                       # number of overall misses
system.cpu0.dcache.overall_accesses::total     25030414                       # number of overall (read+write) accesses
system.cpu0.dcache.overall_miss_rate::total     0.080427                       # miss rate for overall accesses
system.cpu0.icache.overall_hits::total      283107654                       # number of overall hits
system.cpu0.icache.overall_misses::total       622305                       # number of overall misses
system.cpu0.icache.overall_accesses::total    283729959                       # number of overall (read+write) accesses
system.cpu0.icache.overall_miss_rate::total     0.002193                       # miss rate for overall accesses
system.cpu1.dcache.overall_hits::total        2643430                       # number of overall hits
system.cpu1.dcache.overall_misses::total       386259                       # number of overall misses
system.cpu1.dcache.overall_accesses::total      3029689                       # number of overall (read+write) accesses
system.cpu1.dcache.overall_miss_rate::total     0.127491                       # miss rate for overall accesses
system.cpu1.icache.overall_hits::total       13686127                       # number of overall hits
system.cpu1.icache.overall_misses::total        44603                       # number of overall misses
system.cpu1.icache.overall_accesses::total     13730730                       # number of overall (read+write) accesses
system.cpu1.icache.overall_miss_rate::total     0.003248                       # miss rate for overall accesses
system.cpu2.dcache.overall_hits::total        2182554                       # number of overall hits
system.cpu2.dcache.overall_misses::total        57110                       # number of overall misses
system.cpu2.dcache.overall_accesses::total      2239664                       # number of overall (read+write) accesses
system.cpu2.dcache.overall_miss_rate::total     0.025499                       # miss rate for overall accesses
system.cpu2.icache.overall_hits::total        8091889                       # number of overall hits
system.cpu2.icache.overall_misses::total        47948                       # number of overall misses
system.cpu2.icache.overall_accesses::total      8139837                       # number of overall (read+write) accesses
system.cpu2.icache.overall_miss_rate::total     0.005891                       # miss rate for overall accesses
system.cpu3.dcache.overall_hits::total        2316139                       # number of overall hits
system.cpu3.dcache.overall_misses::total        64195                       # number of overall misses
system.cpu3.dcache.overall_accesses::total      2380334                       # number of overall (read+write) accesses
system.cpu3.dcache.overall_miss_rate::total     0.026969                       # miss rate for overall accesses
system.cpu3.icache.overall_hits::total        7818465                       # number of overall hits
system.cpu3.icache.overall_misses::total        44965                       # number of overall misses
system.cpu3.icache.overall_accesses::total      7863430                       # number of overall (read+write) accesses
system.cpu3.icache.overall_miss_rate::total     0.005718                       # miss rate for overall accesses
system.l2.overall_hits::total                 2295777                       # number of overall hits
system.l2.overall_misses::total                611770                       # number of overall misses
system.l2.overall_accesses::total             2907547                       # number of overall (read+write) accesses
system.l2.overall_miss_rate::total           0.210408                       # miss rate for overall accesses
---------- End Simulation Statistics   ----------
---------- Begin Simulation Statistics ----------
system.cpu0.dcache.overall_hits::total         203284                       # number of overall hits
system.cpu0.dcache.overall_misses::total         6615                       # number of overall misses
system.cpu0.dcache.overall_accesses::total       209899                       # number of overall (read+write) accesses
system.cpu0.dcache.overall_miss_rate::total     0.031515                       # miss rate for overall accesses
system.cpu0.icache.overall_hits::total         641940                       # number of overall hits
system.cpu0.icache.overall_misses::total        10680                       # number of overall misses
system.cpu0.icache.overall_accesses::total       652620                       # number of overall (read+write) accesses
system.cpu0.icache.overall_miss_rate::total     0.016365                       # miss rate for overall accesses
system.cpu1.dcache.overall_hits::total        2683135                       # number of overall hits
system.cpu1.dcache.overall_misses::total       182655                       # number of overall misses
system.cpu1.dcache.overall_accesses::total      2865790                       # number of overall (read+write) accesses
system.cpu1.dcache.overall_miss_rate::total     0.063736                       # miss rate for overall accesses
system.cpu1.icache.overall_hits::total        6191002                       # number of overall hits
system.cpu1.icache.overall_misses::total        16280                       # number of overall misses
system.cpu1.icache.overall_accesses::total      6207282                       # number of overall (read+write) accesses
system.cpu1.icache.overall_miss_rate::total     0.002623                       # miss rate for overall accesses
system.cpu2.dcache.overall_hits::total         145675                       # number of overall hits
system.cpu2.dcache.overall_misses::total         5972                       # number of overall misses
system.cpu2.dcache.overall_accesses::total       151647                       # number of overall (read+write) accesses
system.cpu2.dcache.overall_miss_rate::total     0.039381                       # miss rate for overall accesses
system.cpu2.icache.overall_hits::total         408189                       # number of overall hits
system.cpu2.icache.overall_misses::total         4797                       # number of overall misses
system.cpu2.icache.overall_accesses::total       412986                       # number of overall (read+write) accesses
system.cpu2.icache.overall_miss_rate::total     0.011615                       # miss rate for overall accesses
system.cpu3.dcache.overall_hits::total         175401                       # number of overall hits
system.cpu3.dcache.overall_misses::total         4377                       # number of overall misses
system.cpu3.dcache.overall_accesses::total       179778                       # number of overall (read+write) accesses
system.cpu3.dcache.overall_miss_rate::total     0.024347                       # miss rate for overall accesses
system.cpu3.icache.overall_hits::total         662460                       # number of overall hits
system.cpu3.icache.overall_misses::total         5078                       # number of overall misses
system.cpu3.icache.overall_accesses::total       667538                       # number of overall (read+write) accesses
system.cpu3.icache.overall_miss_rate::total     0.007607                       # miss rate for overall accesses
system.l2.overall_hits::total                   91868                       # number of overall hits
system.l2.overall_misses::total                142219                       # number of overall misses
system.l2.overall_accesses::total              234087                       # number of overall (read+write) accesses
system.l2.overall_miss_rate::total           0.607548                       # miss rate for overall accesses
---------- End Simulation Statistics   ----------
---------- Begin Simulation Statistics ----------
system.cpu0.dcache.overall_hits::total      466213573                       # number of overall hits
system.cpu0.dcache.overall_misses::total     13589986                       # number of overall misses
system.cpu0.dcache.overall_accesses::total    479803559                       # number of overall (read+write) accesses
system.cpu0.dcache.overall_miss_rate::total     0.028324                       # miss rate for overall accesses
system.cpu0.icache.overall_hits::total     1572288100                       # number of overall hits
system.cpu0.icache.overall_misses::total     12571742                       # number of overall misses
system.cpu0.icache.overall_accesses::total   1584859842                       # number of overall (read+write) accesses
system.cpu0.icache.overall_miss_rate::total     0.007932                       # miss rate for overall accesses
system.cpu1.dcache.overall_hits::total      468305406                       # number of overall hits
system.cpu1.dcache.overall_misses::total     13561482                       # number of overall misses
system.cpu1.dcache.overall_accesses::total    481866888                       # number of overall (read+write) accesses
system.cpu1.dcache.overall_miss_rate::total     0.028144                       # miss rate for overall accesses
system.cpu1.icache.overall_hits::total     1582351962                       # number of overall hits
system.cpu1.icache.overall_misses::total     12687659                       # number of overall misses
system.cpu1.icache.overall_accesses::total   1595039621                       # number of overall (read+write) accesses
system.cpu1.icache.overall_miss_rate::total     0.007954                       # miss rate for overall accesses
system.cpu2.dcache.overall_hits::total      445795113                       # number of overall hits
system.cpu2.dcache.overall_misses::total     13155587                       # number of overall misses
system.cpu2.dcache.overall_accesses::total    458950700                       # number of overall (read+write) accesses
system.cpu2.dcache.overall_miss_rate::total     0.028664                       # miss rate for overall accesses
system.cpu2.icache.overall_hits::total     1500523102                       # number of overall hits
system.cpu2.icache.overall_misses::total     12224110                       # number of overall misses
system.cpu2.icache.overall_accesses::total   1512747212                       # number of overall (read+write) accesses
system.cpu2.icache.overall_miss_rate::total     0.008081                       # miss rate for overall accesses
system.cpu3.dcache.overall_hits::total      466911939                       # number of overall hits
system.cpu3.dcache.overall_misses::total     13378957                       # number of overall misses
system.cpu3.dcache.overall_accesses::total    480290896                       # number of overall (read+write) accesses
system.cpu3.dcache.overall_miss_rate::total     0.027856                       # miss rate for overall accesses
system.cpu3.icache.overall_hits::total     1577139092                       # number of overall hits
system.cpu3.icache.overall_misses::total     12054808                       # number of overall misses
system.cpu3.icache.overall_accesses::total   1589193900                       # number of overall (read+write) accesses
system.cpu3.icache.overall_miss_rate::total     0.007585                       # miss rate for overall accesses
system.l2.overall_hits::total               101807657                       # number of overall hits
system.l2.overall_misses::total              22502661                       # number of overall misses
system.l2.overall_accesses::total           124310318                       # number of overall (read+write) accesses
system.l2.overall_miss_rate::total           0.181020                       # miss rate for overall accesses
---------- End Simulation Statistics   ----------
---------- Begin Simulation Statistics ----------
system.cpu0.dcache.overall_hits::total          21469                       # number of overall hits
system.cpu0.dcache.overall_misses::total          659                       # number of overall misses
system.cpu0.dcache.overall_accesses::total        22128                       # number of overall (read+write) accesses
system.cpu0.dcache.overall_miss_rate::total     0.029781                       # miss rate for overall accesses
system.cpu0.icache.overall_hits::total          52511                       # number of overall hits
system.cpu0.icache.overall_misses::total          214                       # number of overall misses
system.cpu0.icache.overall_accesses::total        52725                       # number of overall (read+write) accesses
system.cpu0.icache.overall_miss_rate::total     0.004059                       # miss rate for overall accesses
system.cpu1.dcache.overall_hits::total          20120                       # number of overall hits
system.cpu1.dcache.overall_misses::total          623                       # number of overall misses
system.cpu1.dcache.overall_accesses::total        20743                       # number of overall (read+write) accesses
system.cpu1.dcache.overall_miss_rate::total     0.030034                       # miss rate for overall accesses
system.cpu1.icache.overall_hits::total          49239                       # number of overall hits
system.cpu1.icache.overall_misses::total          128                       # number of overall misses
system.cpu1.icache.overall_accesses::total        49367                       # number of overall (read+write) accesses
system.cpu1.icache.overall_miss_rate::total     0.002593                       # miss rate for overall accesses
system.cpu2.dcache.overall_hits::total        7577303                       # number of overall hits
system.cpu2.dcache.overall_misses::total       140029                       # number of overall misses
system.cpu2.dcache.overall_accesses::total      7717332                       # number of overall (read+write) accesses
system.cpu2.dcache.overall_miss_rate::total     0.018145                       # miss rate for overall accesses
system.cpu2.icache.overall_hits::total       27689982                       # number of overall hits
system.cpu2.icache.overall_misses::total        13906                       # number of overall misses
system.cpu2.icache.overall_accesses::total     27703888                       # number of overall (read+write) accesses
system.cpu2.icache.overall_miss_rate::total     0.000502                       # miss rate for overall accesses
system.cpu3.dcache.overall_hits::total          58856                       # number of overall hits
system.cpu3.dcache.overall_misses::total         2736                       # number of overall misses
system.cpu3.dcache.overall_accesses::total        61592                       # number of overall (read+write) accesses
system.cpu3.dcache.overall_miss_rate::total     0.044421                       # miss rate for overall accesses
system.cpu3.icache.overall_hits::total         166299                       # number of overall hits
system.cpu3.icache.overall_misses::total         1583                       # number of overall misses
system.cpu3.icache.overall_accesses::total       167882                       # number of overall (read+write) accesses
system.cpu3.icache.overall_miss_rate::total     0.009429                       # miss rate for overall accesses
system.l2.overall_hits::total                   95217                       # number of overall hits
system.l2.overall_misses::total                 84449                       # number of overall misses
system.l2.overall_accesses::total              179666                       # number of overall (read+write) accesses
system.l2.overall_miss_rate::total           0.470033                       # miss rate for overall accesses
---------- End Simulation Statistics   ----------
