---------- Begin Simulation Statistics ----------
system.cpu0.dcache.overall_hits::total       23017021                       # number of overall hits
system.cpu0.dcache.overall_misses::total      2013116                       # number of overall misses
system.cpu0.dcache.overall_accesses::total     25030137                       # number of overall (read+write) accesses
system.cpu0.dcache.overall_miss_rate::total     0.080428                       # miss rate for overall accesses
system.cpu0.icache.overall_hits::total      283106954                       # number of overall hits
system.cpu0.icache.overall_misses::total       622290                       # number of overall misses
system.cpu0.icache.overall_accesses::total    283729244                       # number of overall (read+write) accesses
system.cpu0.icache.overall_miss_rate::total     0.002193                       # miss rate for overall accesses
system.cpu1.dcache.overall_hits::total        2643545                       # number of overall hits
system.cpu1.dcache.overall_misses::total       386262                       # number of overall misses
system.cpu1.dcache.overall_accesses::total      3029807                       # number of overall (read+write) accesses
system.cpu1.dcache.overall_miss_rate::total     0.127487                       # miss rate for overall accesses
system.cpu1.icache.overall_hits::total       13686871                       # number of overall hits
system.cpu1.icache.overall_misses::total        44602                       # number of overall misses
system.cpu1.icache.overall_accesses::total     13731473                       # number of overall (read+write) accesses
system.cpu1.icache.overall_miss_rate::total     0.003248                       # miss rate for overall accesses
system.cpu2.dcache.overall_hits::total        2182554                       # number of overall hits
system.cpu2.dcache.overall_misses::total        57110                       # number of overall misses
system.cpu2.dcache.overall_accesses::total      2239664                       # number of overall (read+write) accesses
system.cpu2.dcache.overall_miss_rate::total     0.025499                       # miss rate for overall accesses
system.cpu2.icache.overall_hits::total        8091889                       # number of overall hits
system.cpu2.icache.overall_misses::total        47948                       # number of overall misses
system.cpu2.icache.overall_accesses::total      8139837                       # number of overall (read+write) accesses
system.cpu2.icache.overall_miss_rate::total     0.005891                       # miss rate for overall accesses
system.cpu3.dcache.overall_hits::total        2320261                       # number of overall hits
system.cpu3.dcache.overall_misses::total        64190                       # number of overall misses
system.cpu3.dcache.overall_accesses::total      2384451                       # number of overall (read+write) accesses
system.cpu3.dcache.overall_miss_rate::total     0.026920                       # miss rate for overall accesses
system.cpu3.icache.overall_hits::total        7830537                       # number of overall hits
system.cpu3.icache.overall_misses::total        45120                       # number of overall misses
system.cpu3.icache.overall_accesses::total      7875657                       # number of overall (read+write) accesses
system.cpu3.icache.overall_miss_rate::total     0.005729                       # miss rate for overall accesses
system.l2.overall_hits::total                 2295919                       # number of overall hits
system.l2.overall_misses::total                611767                       # number of overall misses
system.l2.overall_accesses::total             2907686                       # number of overall (read+write) accesses
system.l2.overall_miss_rate::total           0.210397                       # miss rate for overall accesses
---------- End Simulation Statistics   ----------
---------- Begin Simulation Statistics ----------
system.cpu0.dcache.overall_hits::total         237059                       # number of overall hits
system.cpu0.dcache.overall_misses::total        11494                       # number of overall misses
system.cpu0.dcache.overall_accesses::total       248553                       # number of overall (read+write) accesses
system.cpu0.dcache.overall_miss_rate::total     0.046244                       # miss rate for overall accesses
system.cpu0.icache.overall_hits::total         710858                       # number of overall hits
system.cpu0.icache.overall_misses::total        12119                       # number of overall misses
system.cpu0.icache.overall_accesses::total       722977                       # number of overall (read+write) accesses
system.cpu0.icache.overall_miss_rate::total     0.016763                       # miss rate for overall accesses
system.cpu1.dcache.overall_hits::total         159087                       # number of overall hits
system.cpu1.dcache.overall_misses::total         8820                       # number of overall misses
system.cpu1.dcache.overall_accesses::total       167907                       # number of overall (read+write) accesses
system.cpu1.dcache.overall_miss_rate::total     0.052529                       # miss rate for overall accesses
system.cpu1.icache.overall_hits::total         475684                       # number of overall hits
system.cpu1.icache.overall_misses::total        10299                       # number of overall misses
system.cpu1.icache.overall_accesses::total       485983                       # number of overall (read+write) accesses
system.cpu1.icache.overall_miss_rate::total     0.021192                       # miss rate for overall accesses
system.cpu2.dcache.overall_hits::total         223782                       # number of overall hits
system.cpu2.dcache.overall_misses::total         9153                       # number of overall misses
system.cpu2.dcache.overall_accesses::total       232935                       # number of overall (read+write) accesses
system.cpu2.dcache.overall_miss_rate::total     0.039294                       # miss rate for overall accesses
system.cpu2.icache.overall_hits::total         655990                       # number of overall hits
system.cpu2.icache.overall_misses::total        14024                       # number of overall misses
system.cpu2.icache.overall_accesses::total       670014                       # number of overall (read+write) accesses
system.cpu2.icache.overall_miss_rate::total     0.020931                       # miss rate for overall accesses
system.cpu3.dcache.overall_hits::total         103524                       # number of overall hits
system.cpu3.dcache.overall_misses::total         4072                       # number of overall misses
system.cpu3.dcache.overall_accesses::total       107596                       # number of overall (read+write) accesses
system.cpu3.dcache.overall_miss_rate::total     0.037845                       # miss rate for overall accesses
system.cpu3.icache.overall_hits::total         298604                       # number of overall hits
system.cpu3.icache.overall_misses::total         4372                       # number of overall misses
system.cpu3.icache.overall_accesses::total       302976                       # number of overall (read+write) accesses
system.cpu3.icache.overall_miss_rate::total     0.014430                       # miss rate for overall accesses
system.l2.overall_hits::total                   53206                       # number of overall hits
system.l2.overall_misses::total                  6689                       # number of overall misses
system.l2.overall_accesses::total               59895                       # number of overall (read+write) accesses
system.l2.overall_miss_rate::total           0.111679                       # miss rate for overall accesses
---------- End Simulation Statistics   ----------
