---------- Begin Simulation Statistics ----------
system.cpu0.dcache.overall_hits::total       22991411                       # number of overall hits
system.cpu0.dcache.overall_misses::total      2039003                       # number of overall misses
system.cpu0.dcache.overall_accesses::total     25030414                       # number of overall (read+write) accesses
system.cpu0.dcache.overall_miss_rate::total     0.081461                       # miss rate for overall accesses
system.cpu0.icache.overall_hits::total      283108598                       # number of overall hits
system.cpu0.icache.overall_misses::total       621361                       # number of overall misses
system.cpu0.icache.overall_accesses::total    283729959                       # number of overall (read+write) accesses
system.cpu0.icache.overall_miss_rate::total     0.002190                       # miss rate for overall accesses
system.cpu1.dcache.overall_hits::total        2643600                       # number of overall hits
system.cpu1.dcache.overall_misses::total       386089                       # number of overall misses
system.cpu1.dcache.overall_accesses::total      3029689                       # number of overall (read+write) accesses
system.cpu1.dcache.overall_miss_rate::total     0.127435                       # miss rate for overall accesses
system.cpu1.icache.overall_hits::total       13686117                       # number of overall hits
system.cpu1.icache.overall_misses::total        44613                       # number of overall misses
system.cpu1.icache.overall_accesses::total     13730730                       # number of overall (read+write) accesses
system.cpu1.icache.overall_miss_rate::total     0.003249                       # miss rate for overall accesses
system.cpu2.dcache.overall_hits::total        2182695                       # number of overall hits
system.cpu2.dcache.overall_misses::total        56969                       # number of overall misses
system.cpu2.dcache.overall_accesses::total      2239664                       # number of overall (read+write) accesses
system.cpu2.dcache.overall_miss_rate::total     0.025436                       # miss rate for overall accesses
system.cpu2.icache.overall_hits::total        8091908                       # number of overall hits
system.cpu2.icache.overall_misses::total        47929                       # number of overall misses
system.cpu2.icache.overall_accesses::total      8139837                       # number of overall (read+write) accesses
system.cpu2.icache.overall_miss_rate::total     0.005888                       # miss rate for overall accesses
system.cpu3.dcache.overall_hits::total        2316332                       # number of overall hits
system.cpu3.dcache.overall_misses::total        63996                       # number of overall misses
system.cpu3.dcache.overall_accesses::total      2380328                       # number of overall (read+write) accesses
system.cpu3.dcache.overall_miss_rate::total     0.026885                       # miss rate for overall accesses
system.cpu3.icache.overall_hits::total        7818484                       # number of overall hits
system.cpu3.icache.overall_misses::total        44974                       # number of overall misses
system.cpu3.icache.overall_accesses::total      7863458                       # number of overall (read+write) accesses
system.cpu3.icache.overall_miss_rate::total     0.005719                       # miss rate for overall accesses
system.l2.overall_hits::total                 2354387                       # number of overall hits
system.l2.overall_misses::total                576690                       # number of overall misses
system.l2.overall_accesses::total             2931077                       # number of overall (read+write) accesses
system.l2.overall_miss_rate::total           0.196750                       # miss rate for overall accesses
---------- End Simulation Statistics   ----------
---------- Begin Simulation Statistics ----------
system.cpu0.dcache.overall_hits::total         114938                       # number of overall hits
system.cpu0.dcache.overall_misses::total         4322                       # number of overall misses
system.cpu0.dcache.overall_accesses::total       119260                       # number of overall (read+write) accesses
system.cpu0.dcache.overall_miss_rate::total     0.036240                       # miss rate for overall accesses
system.cpu0.icache.overall_hits::total         341323                       # number of overall hits
system.cpu0.icache.overall_misses::total         4730                       # number of overall misses
system.cpu0.icache.overall_accesses::total       346053                       # number of overall (read+write) accesses
system.cpu0.icache.overall_miss_rate::total     0.013668                       # miss rate for overall accesses
system.cpu1.dcache.overall_hits::total         168443                       # number of overall hits
system.cpu1.dcache.overall_misses::total         4085                       # number of overall misses
system.cpu1.dcache.overall_accesses::total       172528                       # number of overall (read+write) accesses
system.cpu1.dcache.overall_miss_rate::total     0.023677                       # miss rate for overall accesses
system.cpu1.icache.overall_hits::total         517421                       # number of overall hits
system.cpu1.icache.overall_misses::total         5314                       # number of overall misses
system.cpu1.icache.overall_accesses::total       522735                       # number of overall (read+write) accesses
system.cpu1.icache.overall_miss_rate::total     0.010166                       # miss rate for overall accesses
system.cpu2.dcache.overall_hits::total         165201                       # number of overall hits
system.cpu2.dcache.overall_misses::total         6404                       # number of overall misses
system.cpu2.dcache.overall_accesses::total       171605                       # number of overall (read+write) accesses
system.cpu2.dcache.overall_miss_rate::total     0.037318                       # miss rate for overall accesses
system.cpu2.icache.overall_hits::total         464448                       # number of overall hits
system.cpu2.icache.overall_misses::total         6509                       # number of overall misses
system.cpu2.icache.overall_accesses::total       470957                       # number of overall (read+write) accesses
system.cpu2.icache.overall_miss_rate::total     0.013821                       # miss rate for overall accesses
system.cpu3.dcache.overall_hits::total          90736                       # number of overall hits
system.cpu3.dcache.overall_misses::total         2460                       # number of overall misses
system.cpu3.dcache.overall_accesses::total        93196                       # number of overall (read+write) accesses
system.cpu3.dcache.overall_miss_rate::total     0.026396                       # miss rate for overall accesses
system.cpu3.icache.overall_hits::total         259382                       # number of overall hits
system.cpu3.icache.overall_misses::total         2676                       # number of overall misses
system.cpu3.icache.overall_accesses::total       262058                       # number of overall (read+write) accesses
system.cpu3.icache.overall_miss_rate::total     0.010211                       # miss rate for overall accesses
system.l2.overall_hits::total                   27681                       # number of overall hits
system.l2.overall_misses::total                  1665                       # number of overall misses
system.l2.overall_accesses::total               29346                       # number of overall (read+write) accesses
system.l2.overall_miss_rate::total           0.056737                       # miss rate for overall accesses
---------- End Simulation Statistics   ----------
---------- Begin Simulation Statistics ----------
system.cpu0.dcache.overall_hits::total      296769245                       # number of overall hits
system.cpu0.dcache.overall_misses::total      1723271                       # number of overall misses
system.cpu0.dcache.overall_accesses::total    298492516                       # number of overall (read+write) accesses
system.cpu0.dcache.overall_miss_rate::total     0.005773                       # miss rate for overall accesses
system.cpu0.icache.overall_hits::total     1159393059                       # number of overall hits
system.cpu0.icache.overall_misses::total       327879                       # number of overall misses
system.cpu0.icache.overall_accesses::total   1159720938                       # number of overall (read+write) accesses
system.cpu0.icache.overall_miss_rate::total     0.000283                       # miss rate for overall accesses
system.cpu1.dcache.overall_hits::total      298632362                       # number of overall hits
system.cpu1.dcache.overall_misses::total      1390095                       # number of overall misses
system.cpu1.dcache.overall_accesses::total    300022457                       # number of overall (read+write) accesses
system.cpu1.dcache.overall_miss_rate::total     0.004633                       # miss rate for overall accesses
system.cpu1.icache.overall_hits::total     1165480758                       # number of overall hits
system.cpu1.icache.overall_misses::total       329512                       # number of overall misses
system.cpu1.icache.overall_accesses::total   1165810270                       # number of overall (read+write) accesses
system.cpu1.icache.overall_miss_rate::total     0.000283                       # miss rate for overall accesses
system.cpu2.dcache.overall_hits::total      295936078                       # number of overall hits
system.cpu2.dcache.overall_misses::total      1492180                       # number of overall misses
system.cpu2.dcache.overall_accesses::total    297428258                       # number of overall (read+write) accesses
system.cpu2.dcache.overall_miss_rate::total     0.005017                       # miss rate for overall accesses
system.cpu2.icache.overall_hits::total     1155475577                       # number of overall hits
system.cpu2.icache.overall_misses::total       328744                       # number of overall misses
system.cpu2.icache.overall_accesses::total   1155804321                       # number of overall (read+write) accesses
system.cpu2.icache.overall_miss_rate::total     0.000284                       # miss rate for overall accesses
system.cpu3.dcache.overall_hits::total      295930495                       # number of overall hits
system.cpu3.dcache.overall_misses::total      1409720                       # number of overall misses
system.cpu3.dcache.overall_accesses::total    297340215                       # number of overall (read+write) accesses
system.cpu3.dcache.overall_miss_rate::total     0.004741                       # miss rate for overall accesses
system.cpu3.icache.overall_hits::total     1155158800                       # number of overall hits
system.cpu3.icache.overall_misses::total       329871                       # number of overall misses
system.cpu3.icache.overall_accesses::total   1155488671                       # number of overall (read+write) accesses
system.cpu3.icache.overall_miss_rate::total     0.000285                       # miss rate for overall accesses
system.l2.overall_hits::total                 6698481                       # number of overall hits
system.l2.overall_misses::total                 26188                       # number of overall misses
system.l2.overall_accesses::total             6724669                       # number of overall (read+write) accesses
system.l2.overall_miss_rate::total           0.003894                       # miss rate for overall accesses
---------- End Simulation Statistics   ----------
