---------- Begin Simulation Statistics ----------
system.cpu0.dcache.overall_hits::total       23018213                       # number of overall hits
system.cpu0.dcache.overall_misses::total      2012201                       # number of overall misses
system.cpu0.dcache.overall_accesses::total     25030414                       # number of overall (read+write) accesses
system.cpu0.dcache.overall_miss_rate::total     0.080390                       # miss rate for overall accesses
system.cpu0.icache.overall_hits::total      283107639                       # number of overall hits
system.cpu0.icache.overall_misses::total       622320                       # number of overall misses
system.cpu0.icache.overall_accesses::total    283729959                       # number of overall (read+write) accesses
system.cpu0.icache.overall_miss_rate::total     0.002193                       # miss rate for overall accesses
system.cpu1.dcache.overall_hits::total        2643605                       # number of overall hits
system.cpu1.dcache.overall_misses::total       386084                       # number of overall misses
system.cpu1.dcache.overall_accesses::total      3029689                       # number of overall (read+write) accesses
system.cpu1.dcache.overall_miss_rate::total     0.127434                       # miss rate for overall accesses
system.cpu1.icache.overall_hits::total       13686129                       # number of overall hits
system.cpu1.icache.overall_misses::total        44601                       # number of overall misses
system.cpu1.icache.overall_accesses::total     13730730                       # number of overall (read+write) accesses
system.cpu1.icache.overall_miss_rate::total     0.003248                       # miss rate for overall accesses
system.cpu2.dcache.overall_hits::total        2182506                       # number of overall hits
system.cpu2.dcache.overall_misses::total        57158                       # number of overall misses
system.cpu2.dcache.overall_accesses::total      2239664                       # number of overall (read+write) accesses
system.cpu2.dcache.overall_miss_rate::total     0.025521                       # miss rate for overall accesses
system.cpu2.icache.overall_hits::total        8091886                       # number of overall hits
system.cpu2.icache.overall_misses::total        47951                       # number of overall misses
system.cpu2.icache.overall_accesses::total      8139837                       # number of overall (read+write) accesses
system.cpu2.icache.overall_miss_rate::total     0.005891                       # miss rate for overall accesses
system.cpu3.dcache.overall_hits::total        2315916                       # number of overall hits
system.cpu3.dcache.overall_misses::total        64410                       # number of overall misses
system.cpu3.dcache.overall_accesses::total      2380326                       # number of overall (read+write) accesses
system.cpu3.dcache.overall_miss_rate::total     0.027059                       # miss rate for overall accesses
system.cpu3.icache.overall_hits::total        7818488                       # number of overall hits
system.cpu3.icache.overall_misses::total        44964                       # number of overall misses
system.cpu3.icache.overall_accesses::total      7863452                       # number of overall (read+write) accesses
system.cpu3.icache.overall_miss_rate::total     0.005718                       # miss rate for overall accesses
system.l2.overall_hits::total                 2291749                       # number of overall hits
system.l2.overall_misses::total                616594                       # number of overall misses
system.l2.overall_accesses::total             2908343                       # number of overall (read+write) accesses
system.l2.overall_miss_rate::total           0.212009                       # miss rate for overall accesses
---------- End Simulation Statistics   ----------
---------- Begin Simulation Statistics ----------
system.cpu0.dcache.overall_hits::total        6593540                       # number of overall hits
system.cpu0.dcache.overall_misses::total       352351                       # number of overall misses
system.cpu0.dcache.overall_accesses::total      6945891                       # number of overall (read+write) accesses
system.cpu0.dcache.overall_miss_rate::total     0.050728                       # miss rate for overall accesses
system.cpu0.icache.overall_hits::total       16428061                       # number of overall hits
system.cpu0.icache.overall_misses::total        45203                       # number of overall misses
system.cpu0.icache.overall_accesses::total     16473264                       # number of overall (read+write) accesses
system.cpu0.icache.overall_miss_rate::total     0.002744                       # miss rate for overall accesses
system.cpu1.dcache.overall_hits::total       18664884                       # number of overall hits
system.cpu1.dcache.overall_misses::total       654965                       # number of overall misses
system.cpu1.dcache.overall_accesses::total     19319849                       # number of overall (read+write) accesses
system.cpu1.dcache.overall_miss_rate::total     0.033901                       # miss rate for overall accesses
system.cpu1.icache.overall_hits::total       48239100                       # number of overall hits
system.cpu1.icache.overall_misses::total       151561                       # number of overall misses
system.cpu1.icache.overall_accesses::total     48390661                       # number of overall (read+write) accesses
system.cpu1.icache.overall_miss_rate::total     0.003132                       # miss rate for overall accesses
system.cpu2.dcache.overall_hits::total        7473810                       # number of overall hits
system.cpu2.dcache.overall_misses::total       283775                       # number of overall misses
system.cpu2.dcache.overall_accesses::total      7757585                       # number of overall (read+write) accesses
system.cpu2.dcache.overall_miss_rate::total     0.036580                       # miss rate for overall accesses
system.cpu2.icache.overall_hits::total       19249171                       # number of overall hits
system.cpu2.icache.overall_misses::total        67488                       # number of overall misses
system.cpu2.icache.overall_accesses::total     19316659                       # number of overall (read+write) accesses
system.cpu2.icache.overall_miss_rate::total     0.003494                       # miss rate for overall accesses
system.cpu3.dcache.overall_hits::total       36300159                       # number of overall hits
system.cpu3.dcache.overall_misses::total       970211                       # number of overall misses
system.cpu3.dcache.overall_accesses::total     37270370                       # number of overall (read+write) accesses
system.cpu3.dcache.overall_miss_rate::total     0.026032                       # miss rate for overall accesses
system.cpu3.icache.overall_hits::total      129970118                       # number of overall hits
system.cpu3.icache.overall_misses::total       113129                       # number of overall misses
system.cpu3.icache.overall_accesses::total    130083247                       # number of overall (read+write) accesses
system.cpu3.icache.overall_miss_rate::total     0.000870                       # miss rate for overall accesses
system.l2.overall_hits::total                 1463558                       # number of overall hits
system.l2.overall_misses::total               1794785                       # number of overall misses
system.l2.overall_accesses::total             3258343                       # number of overall (read+write) accesses
system.l2.overall_miss_rate::total           0.550828                       # miss rate for overall accesses
---------- End Simulation Statistics   ----------
---------- Begin Simulation Statistics ----------
system.cpu0.dcache.overall_hits::total         107411                       # number of overall hits
system.cpu0.dcache.overall_misses::total         3318                       # number of overall misses
system.cpu0.dcache.overall_accesses::total       110729                       # number of overall (read+write) accesses
system.cpu0.dcache.overall_miss_rate::total     0.029965                       # miss rate for overall accesses
system.cpu0.icache.overall_hits::total         318690                       # number of overall hits
system.cpu0.icache.overall_misses::total         3768                       # number of overall misses
system.cpu0.icache.overall_accesses::total       322458                       # number of overall (read+write) accesses
system.cpu0.icache.overall_miss_rate::total     0.011685                       # miss rate for overall accesses
system.cpu1.dcache.overall_hits::total        4464172                       # number of overall hits
system.cpu1.dcache.overall_misses::total       168505                       # number of overall misses
system.cpu1.dcache.overall_accesses::total      4632677                       # number of overall (read+write) accesses
system.cpu1.dcache.overall_miss_rate::total     0.036373                       # miss rate for overall accesses
system.cpu1.icache.overall_hits::total       15553668                       # number of overall hits
system.cpu1.icache.overall_misses::total        69011                       # number of overall misses
system.cpu1.icache.overall_accesses::total     15622679                       # number of overall (read+write) accesses
system.cpu1.icache.overall_miss_rate::total     0.004417                       # miss rate for overall accesses
system.cpu2.dcache.overall_hits::total         143831                       # number of overall hits
system.cpu2.dcache.overall_misses::total         5901                       # number of overall misses
system.cpu2.dcache.overall_accesses::total       149732                       # number of overall (read+write) accesses
system.cpu2.dcache.overall_miss_rate::total     0.039410                       # miss rate for overall accesses
system.cpu2.icache.overall_hits::total         428910                       # number of overall hits
system.cpu2.icache.overall_misses::total         6021                       # number of overall misses
system.cpu2.icache.overall_accesses::total       434931                       # number of overall (read+write) accesses
system.cpu2.icache.overall_miss_rate::total     0.013844                       # miss rate for overall accesses
system.cpu3.dcache.overall_hits::total        1672094                       # number of overall hits
system.cpu3.dcache.overall_misses::total        26901                       # number of overall misses
system.cpu3.dcache.overall_accesses::total      1698995                       # number of overall (read+write) accesses
system.cpu3.dcache.overall_miss_rate::total     0.015833                       # miss rate for overall accesses
system.cpu3.icache.overall_hits::total        5544088                       # number of overall hits
system.cpu3.icache.overall_misses::total        15265                       # number of overall misses
system.cpu3.icache.overall_accesses::total      5559353                       # number of overall (read+write) accesses
system.cpu3.icache.overall_miss_rate::total     0.002746                       # miss rate for overall accesses
system.l2.overall_hits::total                  172497                       # number of overall hits
system.l2.overall_misses::total                139306                       # number of overall misses
system.l2.overall_accesses::total              311803                       # number of overall (read+write) accesses
system.l2.overall_miss_rate::total           0.446776                       # miss rate for overall accesses
---------- End Simulation Statistics   ----------
