---------- Begin Simulation Statistics ----------
system.cpu0.dcache.overall_hits::total       22991411                       # number of overall hits
system.cpu0.dcache.overall_misses::total      2039003                       # number of overall misses
system.cpu0.dcache.overall_accesses::total     25030414                       # number of overall (read+write) accesses
system.cpu0.dcache.overall_miss_rate::total     0.081461                       # miss rate for overall accesses
system.cpu0.icache.overall_hits::total      283108598                       # number of overall hits
system.cpu0.icache.overall_misses::total       621361                       # number of overall misses
system.cpu0.icache.overall_accesses::total    283729959                       # number of overall (read+write) accesses
system.cpu0.icache.overall_miss_rate::total     0.002190                       # miss rate for overall accesses
system.cpu1.dcache.overall_hits::total        2643600                       # number of overall hits
system.cpu1.dcache.overall_misses::total       386089                       # number of overall misses
system.cpu1.dcache.overall_accesses::total      3029689                       # number of overall (read+write) accesses
system.cpu1.dcache.overall_miss_rate::total     0.127435                       # miss rate for overall accesses
system.cpu1.icache.overall_hits::total       13686117                       # number of overall hits
system.cpu1.icache.overall_misses::total        44613                       # number of overall misses
system.cpu1.icache.overall_accesses::total     13730730                       # number of overall (read+write) accesses
system.cpu1.icache.overall_miss_rate::total     0.003249                       # miss rate for overall accesses
system.cpu2.dcache.overall_hits::total        2182695                       # number of overall hits
system.cpu2.dcache.overall_misses::total        56969                       # number of overall misses
system.cpu2.dcache.overall_accesses::total      2239664                       # number of overall (read+write) accesses
system.cpu2.dcache.overall_miss_rate::total     0.025436                       # miss rate for overall accesses
system.cpu2.icache.overall_hits::total        8091908                       # number of overall hits
system.cpu2.icache.overall_misses::total        47929                       # number of overall misses
system.cpu2.icache.overall_accesses::total      8139837                       # number of overall (read+write) accesses
system.cpu2.icache.overall_miss_rate::total     0.005888                       # miss rate for overall accesses
system.cpu3.dcache.overall_hits::total        2316408                       # number of overall hits
system.cpu3.dcache.overall_misses::total        64000                       # number of overall misses
system.cpu3.dcache.overall_accesses::total      2380408                       # number of overall (read+write) accesses
system.cpu3.dcache.overall_miss_rate::total     0.026886                       # miss rate for overall accesses
system.cpu3.icache.overall_hits::total        7818672                       # number of overall hits
system.cpu3.icache.overall_misses::total        44974                       # number of overall misses
system.cpu3.icache.overall_accesses::total      7863646                       # number of overall (read+write) accesses
system.cpu3.icache.overall_miss_rate::total     0.005719                       # miss rate for overall accesses
system.l2.overall_hits::total                 2354391                       # number of overall hits
system.l2.overall_misses::total                576690                       # number of overall misses
system.l2.overall_accesses::total             2931081                       # number of overall (read+write) accesses
system.l2.overall_miss_rate::total           0.196750                       # miss rate for overall accesses
---------- End Simulation Statistics   ----------
---------- Begin Simulation Statistics ----------
system.cpu0.dcache.overall_hits::total         952493                       # number of overall hits
system.cpu0.dcache.overall_misses::total         8118                       # number of overall misses
system.cpu0.dcache.overall_accesses::total       960611                       # number of overall (read+write) accesses
system.cpu0.dcache.overall_miss_rate::total     0.008451                       # miss rate for overall accesses
system.cpu0.icache.overall_hits::total        3646365                       # number of overall hits
system.cpu0.icache.overall_misses::total         8259                       # number of overall misses
system.cpu0.icache.overall_accesses::total      3654624                       # number of overall (read+write) accesses
system.cpu0.icache.overall_miss_rate::total     0.002260                       # miss rate for overall accesses
system.cpu1.dcache.overall_hits::total         246968                       # number of overall hits
system.cpu1.dcache.overall_misses::total         7266                       # number of overall misses
system.cpu1.dcache.overall_accesses::total       254234                       # number of overall (read+write) accesses
system.cpu1.dcache.overall_miss_rate::total     0.028580                       # miss rate for overall accesses
system.cpu1.icache.overall_hits::total         658355                       # number of overall hits
system.cpu1.icache.overall_misses::total         6427                       # number of overall misses
system.cpu1.icache.overall_accesses::total       664782                       # number of overall (read+write) accesses
system.cpu1.icache.overall_miss_rate::total     0.009668                       # miss rate for overall accesses
system.cpu2.dcache.overall_hits::total      179386393                       # number of overall hits
system.cpu2.dcache.overall_misses::total       207412                       # number of overall misses
system.cpu2.dcache.overall_accesses::total    179593805                       # number of overall (read+write) accesses
system.cpu2.dcache.overall_miss_rate::total     0.001155                       # miss rate for overall accesses
system.cpu2.icache.overall_hits::total      756419728                       # number of overall hits
system.cpu2.icache.overall_misses::total       499242                       # number of overall misses
system.cpu2.icache.overall_accesses::total    756918970                       # number of overall (read+write) accesses
system.cpu2.icache.overall_miss_rate::total     0.000660                       # miss rate for overall accesses
system.cpu3.dcache.overall_hits::total         251618                       # number of overall hits
system.cpu3.dcache.overall_misses::total         7480                       # number of overall misses
system.cpu3.dcache.overall_accesses::total       259098                       # number of overall (read+write) accesses
system.cpu3.dcache.overall_miss_rate::total     0.028869                       # miss rate for overall accesses
system.cpu3.icache.overall_hits::total         680248                       # number of overall hits
system.cpu3.icache.overall_misses::total         7313                       # number of overall misses
system.cpu3.icache.overall_accesses::total       687561                       # number of overall (read+write) accesses
system.cpu3.icache.overall_miss_rate::total     0.010636                       # miss rate for overall accesses
system.l2.overall_hits::total                  561667                       # number of overall hits
system.l2.overall_misses::total                167288                       # number of overall misses
system.l2.overall_accesses::total              728955                       # number of overall (read+write) accesses
system.l2.overall_miss_rate::total           0.229490                       # miss rate for overall accesses
---------- End Simulation Statistics   ----------
---------- Begin Simulation Statistics ----------
system.cpu0.dcache.overall_hits::total       20400536                       # number of overall hits
system.cpu0.dcache.overall_misses::total         2461                       # number of overall misses
system.cpu0.dcache.overall_accesses::total     20402997                       # number of overall (read+write) accesses
system.cpu0.dcache.overall_miss_rate::total     0.000121                       # miss rate for overall accesses
system.cpu0.icache.overall_hits::total       93800927                       # number of overall hits
system.cpu0.icache.overall_misses::total          635                       # number of overall misses
system.cpu0.icache.overall_accesses::total     93801562                       # number of overall (read+write) accesses
system.cpu0.icache.overall_miss_rate::total     0.000007                       # miss rate for overall accesses
system.cpu1.dcache.overall_hits::total       20827188                       # number of overall hits
system.cpu1.dcache.overall_misses::total        12561                       # number of overall misses
system.cpu1.dcache.overall_accesses::total     20839749                       # number of overall (read+write) accesses
system.cpu1.dcache.overall_miss_rate::total     0.000603                       # miss rate for overall accesses
system.cpu1.icache.overall_hits::total       95612851                       # number of overall hits
system.cpu1.icache.overall_misses::total         2333                       # number of overall misses
system.cpu1.icache.overall_accesses::total     95615184                       # number of overall (read+write) accesses
system.cpu1.icache.overall_miss_rate::total     0.000024                       # miss rate for overall accesses
system.cpu2.dcache.overall_hits::total       21172843                       # number of overall hits
system.cpu2.dcache.overall_misses::total        13414                       # number of overall misses
system.cpu2.dcache.overall_accesses::total     21186257                       # number of overall (read+write) accesses
system.cpu2.dcache.overall_miss_rate::total     0.000633                       # miss rate for overall accesses
system.cpu2.icache.overall_hits::total       97219343                       # number of overall hits
system.cpu2.icache.overall_misses::total         5806                       # number of overall misses
system.cpu2.icache.overall_accesses::total     97225149                       # number of overall (read+write) accesses
system.cpu2.icache.overall_miss_rate::total     0.000060                       # miss rate for overall accesses
system.cpu3.dcache.overall_hits::total       19513943                       # number of overall hits
system.cpu3.dcache.overall_misses::total         6762                       # number of overall misses
system.cpu3.dcache.overall_accesses::total     19520705                       # number of overall (read+write) accesses
system.cpu3.dcache.overall_miss_rate::total     0.000346                       # miss rate for overall accesses
system.cpu3.icache.overall_hits::total       89709543                       # number of overall hits
system.cpu3.icache.overall_misses::total          797                       # number of overall misses
system.cpu3.icache.overall_accesses::total     89710340                       # number of overall (read+write) accesses
system.cpu3.icache.overall_miss_rate::total     0.000009                       # miss rate for overall accesses
system.l2.overall_hits::total                   28992                       # number of overall hits
system.l2.overall_misses::total                 13626                       # number of overall misses
system.l2.overall_accesses::total               42618                       # number of overall (read+write) accesses
system.l2.overall_miss_rate::total           0.319724                       # miss rate for overall accesses
---------- End Simulation Statistics   ----------
